                                   MODFLOW 6
                U.S. GEOLOGICAL SURVEY MODULAR HYDROLOGIC MODEL
                          GROUNDWATER FLOW MODEL (GWF)
                            VERSION 6.6.2 05/12/2025

   MODFLOW 6 compiled May 24 2025 11:41:46 with Intel(R) Fortran Intel(R) 64
   Compiler Classic for applications running on Intel(R) 64, Version 2021.7.0
                             Build 20220726_000000

This software has been approved for release by the U.S. Geological 
Survey (USGS). Although the software has been subjected to rigorous 
review, the USGS reserves the right to update the software as needed 
pursuant to further analysis and review. No warranty, expressed or 
implied, is made by the USGS or the U.S. Government as to the 
functionality of the software and related material nor shall the 
fact of release constitute any such warranty. Furthermore, the 
software is released on condition that neither the USGS nor the U.S. 
Government shall be held liable for any damages resulting from its 
authorized or unauthorized use. Also refer to the USGS Water 
Resources Software User Rights Notice for complete use, copyright, 
and distribution information.


As a work of the United States Government, this USGS product is 
in the public domain within the United States. You can copy, 
modify, distribute, and perform the work, even for commercial 
purposes, all without asking permission. Additionally, USGS 
waives copyright and related rights in the work worldwide 
through CC0 1.0 Universal Public Domain Dedication 
(https://creativecommons.org/publicdomain/zero/1.0/).

The following GNU Lesser General Public License (LGPL) libraries
are used in this USGS product:

    SPARSKIT version 2.0
      ilut, luson, and qsplit 
      (https://www-users.cse.umn.edu/~saad/software/SPARSKIT/)

    RCM - Reverse Cuthill McKee Ordering
      (https://people.math.sc.edu/Burkardt/f_src/rcm/rcm.html)

    BLAS - Basic Linear Algebra Subprograms Level 1
      (https://people.math.sc.edu/Burkardt/f_src/blas1_d/blas1_d.html)

    SPARSEKIT - Sparse Matrix Utility Package
      amux, dperm, dvperm, rperm, and cperm
      (https://people.sc.fsu.edu/~jburkardt/f77_src/sparsekit/sparsekit.html)

The following BSD-3 License libraries are used in this USGS product:

    Modern Fortran DAG Library
      Copyright (c) 2018, Jacob Williams
      All rights reserved.
      (https://github.com/jacobwilliams/daglib)

MODFLOW 6 compiler options: -Ilinux/obj_mf6 -O2 -no-heap-arrays -fpe0
-traceback -Qdiag-disable:7416 -Qdiag-disable:7025 -Qdiag-disable:5268 -fpp
-module linux/mod_mf6/ -c -o linux/obj_mf6/compilerversion.o

System command used to initiate simulation:
/home/danilopezmella/flopy_expert/bin/mf6

MODFLOW was compiled using uniform precision.

Real Variables
  KIND: 8
  TINY (smallest non-zero value):    2.225074-308
  HUGE (largest value):    1.797693+308
  PRECISION: 15
  SIZE IN BITS: 64

Integer Variables
  KIND: 4
  HUGE (largest value): 2147483647
  SIZE IN BITS: 32

Long Integer Variables
  KIND: 8
  HUGE (largest value): 9223372036854775807
  SIZE IN BITS: 64

Logical Variables
  KIND: 4
  SIZE IN BITS: 32
 
 NAMEFILE OPTIONS:
    STRESS PACKAGE INPUT WILL BE PRINTED FOR ALL MODEL STRESS PACKAGES
    PACKAGE FLOWS WILL BE PRINTED FOR ALL MODEL PACKAGES
    FLOWS WILL BE SAVED TO BUDGET FILE SPECIFIED IN OUTPUT CONTROL
 END NAMEFILE OPTIONS:

 DIS -- STRUCTURED GRID DISCRETIZATION PACKAGE, VERSION 2 : 3/27/2014 - INPUT READ FROM MEMPATH: __INPUT__/MF6_DEMO/DIS                            


 NPF -- NODE PROPERTY FLOW PACKAGE, VERSION 1, 3/30/2015 INPUT READ FROM MEMPATH: __INPUT__/MF6_DEMO/NPF                            


 IC -- Initial Conditions Package, Version 8, 3/28/2015 input read from mempath: __INPUT__/MF6_DEMO/IC                             


 Setting Discretization Options
    Model length unit [0=UND, 1=FEET, 2=METERS, 3=CENTIMETERS] set as 2
 End Setting Discretization Options

 Setting Discretization Dimensions
    NLAY = 3
    NROW = 20
    NCOL = 30
 End Setting Discretization Dimensions

 Setting Discretization Griddata
    DELR set from input file
    DELC set from input file
    TOP set from input file
    BOTM set from input file
 End Setting Discretization Griddata

 Setting NPF Options
    Specific discharge will be calculated at cell centers and written to DATA-SPDIS in budget file when requested.
    Saturation will be written to DATA-SAT in budget file when requested.
 End Setting NPF Options

 Setting NPF Griddata
    ICELLTYPE set from input file
    K set from input file
    K33 set from input file
    K22 not provided.  Setting K22 = K.
 End Setting NPF Griddata


 WEL   -- WEL PACKAGE, VERSION 8, 2/22/2014 INPUT READ FROM MEMPATH: __INPUT__/MF6_DEMO/WEL_0                          

 PROCESSING WEL BASE OPTIONS
    LISTS OF WEL CELLS WILL BE PRINTED.
    WEL FLOWS WILL BE PRINTED TO LISTING FILE.
 END OF WEL BASE OPTIONS

 PROCESSING WEL OPTIONS
 END OF WEL OPTIONS

 PROCESSING WEL BASE DIMENSIONS
    MAXBOUND =       1
 END OF WEL BASE DIMENSIONS

 RCH   -- RCH PACKAGE, VERSION 8, 2/22/2014 INPUT READ FROM MEMPATH: __INPUT__/MF6_DEMO/RCH_0                          

 PROCESSING RCH BASE OPTIONS
    LISTS OF RCH CELLS WILL BE PRINTED.
    RCH FLOWS WILL BE PRINTED TO LISTING FILE.
 END OF RCH BASE OPTIONS

 PROCESSING RCH OPTIONS
 END OF RCH OPTIONS

 PROCESSING RCH BASE DIMENSIONS
    MAXBOUND =     600
 END OF RCH BASE DIMENSIONS

 CHD   -- CHD PACKAGE, VERSION 8, 2/22/2014 INPUT READ FROM MEMPATH: __INPUT__/MF6_DEMO/CHD_0                          

 PROCESSING CHD BASE OPTIONS
    LISTS OF CHD CELLS WILL BE PRINTED.
    CHD FLOWS WILL BE PRINTED TO LISTING FILE.
 END OF CHD BASE OPTIONS

 PROCESSING CHD BASE DIMENSIONS
    MAXBOUND =      40
 END OF CHD BASE DIMENSIONS
    STRT set from input file

 STO -- STORAGE PACKAGE, VERSION 1, 5/19/2014 INPUT READ FROM MEMPATH: __INPUT__/MF6_DEMO/STO                            


 PROCESSING STORAGE OPTIONS
 END OF STORAGE OPTIONS
    BINARY GRID INFORMATION WILL BE WRITTEN TO:
      UNIT NUMBER: 1015
      FILE NAME: mf6_demo.dis.grb

 OPENED mf6_demo.dis.grb
 FILE TYPE:DATA(BINARY)   UNIT 1015   STATUS:REPLACE             
 FORMAT:UNFORMATTED            ACCESS:STREAM              
 ACTION:READWRITE           

      THE LAST TIME STEP WILL BE PRINTED
      THE LAST TIME STEP WILL BE PRINTED
 # File generated by Flopy version 3.9.3 on 08/07/2025 at 08:31:59.

 PROCESSING OC OPTIONS

    BUDGET INFORMATION WILL BE WRITTEN TO:
      UNIT NUMBER: 1016
      FILE NAME: mf6_demo.cbc

 OPENED mf6_demo.cbc
 FILE TYPE:DATA(BINARY)   UNIT 1016   STATUS:REPLACE             
 FORMAT:UNFORMATTED            ACCESS:STREAM              
 ACTION:READWRITE           

    HEAD INFORMATION WILL BE WRITTEN TO:
      UNIT NUMBER: 1017
      FILE NAME: mf6_demo.hds

 OPENED mf6_demo.hds
 FILE TYPE:DATA(BINARY)   UNIT 1017   STATUS:REPLACE             
 FORMAT:UNFORMATTED            ACCESS:STREAM              
 ACTION:READWRITE           

 END OF OC OPTIONS

start timestep kper="1" kstp="1" mode="normal"


 BEGIN READING OUTPUT CONTROL FOR STRESS PERIOD 1
      ALL TIME STEPS WILL BE SAVED
      ALL TIME STEPS WILL BE SAVED
      THE LAST TIME STEP WILL BE PRINTED
      ALL TIME STEPS WILL BE PRINTED

 END READING OUTPUT CONTROL FOR STRESS PERIOD 1


 PROCESSING STORAGE PERIOD DATA
 END PROCESSING STORAGE PERIOD DATA


 STRESS PERIOD 1 IS STEADY-STATE

 ----------------------------------
  WEL NO.    LAYER    ROW     COL  
 ----------------------------------
     1         2      11      16   
 ----------------------------------


 ----------------------------------
  RCH NO.    LAYER    ROW     COL  
 ----------------------------------
     1         1       1       1   
     2         1       1       2   
     3         1       1       3   
     4         1       1       4   
     5         1       1       5   
     6         1       1       6   
     7         1       1       7   
     8         1       1       8   
     9         1       1       9   
     10        1       1      10   
     11        1       1      11   
     12        1       1      12   
     13        1       1      13   
     14        1       1      14   
     15        1       1      15   
     16        1       1      16   
     17        1       1      17   
     18        1       1      18   
     19        1       1      19   
     20        1       1      20   
     21        1       1      21   
     22        1       1      22   
     23        1       1      23   
     24        1       1      24   
     25        1       1      25   
     26        1       1      26   
     27        1       1      27   
     28        1       1      28   
     29        1       1      29   
     30        1       1      30   
     31        1       2       1   
     32        1       2       2   
     33        1       2       3   
     34        1       2       4   
     35        1       2       5   
     36        1       2       6   
     37        1       2       7   
     38        1       2       8   
     39        1       2       9   
     40        1       2      10   
     41        1       2      11   
     42        1       2      12   
     43        1       2      13   
     44        1       2      14   
     45        1       2      15   
     46        1       2      16   
     47        1       2      17   
     48        1       2      18   
     49        1       2      19   
     50        1       2      20   
     51        1       2      21   
     52        1       2      22   
     53        1       2      23   
     54        1       2      24   
     55        1       2      25   
     56        1       2      26   
     57        1       2      27   
     58        1       2      28   
     59        1       2      29   
     60        1       2      30   
     61        1       3       1   
     62        1       3       2   
     63        1       3       3   
     64        1       3       4   
     65        1       3       5   
     66        1       3       6   
     67        1       3       7   
     68        1       3       8   
     69        1       3       9   
     70        1       3      10   
     71        1       3      11   
     72        1       3      12   
     73        1       3      13   
     74        1       3      14   
     75        1       3      15   
     76        1       3      16   
     77        1       3      17   
     78        1       3      18   
     79        1       3      19   
     80        1       3      20   
     81        1       3      21   
     82        1       3      22   
     83        1       3      23   
     84        1       3      24   
     85        1       3      25   
     86        1       3      26   
     87        1       3      27   
     88        1       3      28   
     89        1       3      29   
     90        1       3      30   
     91        1       4       1   
     92        1       4       2   
     93        1       4       3   
     94        1       4       4   
     95        1       4       5   
     96        1       4       6   
     97        1       4       7   
     98        1       4       8   
     99        1       4       9   
    100        1       4      10   
    101        1       4      11   
    102        1       4      12   
    103        1       4      13   
    104        1       4      14   
    105        1       4      15   
    106        1       4      16   
    107        1       4      17   
    108        1       4      18   
    109        1       4      19   
    110        1       4      20   
    111        1       4      21   
    112        1       4      22   
    113        1       4      23   
    114        1       4      24   
    115        1       4      25   
    116        1       4      26   
    117        1       4      27   
    118        1       4      28   
    119        1       4      29   
    120        1       4      30   
    121        1       5       1   
    122        1       5       2   
    123        1       5       3   
    124        1       5       4   
    125        1       5       5   
    126        1       5       6   
    127        1       5       7   
    128        1       5       8   
    129        1       5       9   
    130        1       5      10   
    131        1       5      11   
    132        1       5      12   
    133        1       5      13   
    134        1       5      14   
    135        1       5      15   
    136        1       5      16   
    137        1       5      17   
    138        1       5      18   
    139        1       5      19   
    140        1       5      20   
    141        1       5      21   
    142        1       5      22   
    143        1       5      23   
    144        1       5      24   
    145        1       5      25   
    146        1       5      26   
    147        1       5      27   
    148        1       5      28   
    149        1       5      29   
    150        1       5      30   
    151        1       6       1   
    152        1       6       2   
    153        1       6       3   
    154        1       6       4   
    155        1       6       5   
    156        1       6       6   
    157        1       6       7   
    158        1       6       8   
    159        1       6       9   
    160        1       6      10   
    161        1       6      11   
    162        1       6      12   
    163        1       6      13   
    164        1       6      14   
    165        1       6      15   
    166        1       6      16   
    167        1       6      17   
    168        1       6      18   
    169        1       6      19   
    170        1       6      20   
    171        1       6      21   
    172        1       6      22   
    173        1       6      23   
    174        1       6      24   
    175        1       6      25   
    176        1       6      26   
    177        1       6      27   
    178        1       6      28   
    179        1       6      29   
    180        1       6      30   
    181        1       7       1   
    182        1       7       2   
    183        1       7       3   
    184        1       7       4   
    185        1       7       5   
    186        1       7       6   
    187        1       7       7   
    188        1       7       8   
    189        1       7       9   
    190        1       7      10   
    191        1       7      11   
    192        1       7      12   
    193        1       7      13   
    194        1       7      14   
    195        1       7      15   
    196        1       7      16   
    197        1       7      17   
    198        1       7      18   
    199        1       7      19   
    200        1       7      20   
    201        1       7      21   
    202        1       7      22   
    203        1       7      23   
    204        1       7      24   
    205        1       7      25   
    206        1       7      26   
    207        1       7      27   
    208        1       7      28   
    209        1       7      29   
    210        1       7      30   
    211        1       8       1   
    212        1       8       2   
    213        1       8       3   
    214        1       8       4   
    215        1       8       5   
    216        1       8       6   
    217        1       8       7   
    218        1       8       8   
    219        1       8       9   
    220        1       8      10   
    221        1       8      11   
    222        1       8      12   
    223        1       8      13   
    224        1       8      14   
    225        1       8      15   
    226        1       8      16   
    227        1       8      17   
    228        1       8      18   
    229        1       8      19   
    230        1       8      20   
    231        1       8      21   
    232        1       8      22   
    233        1       8      23   
    234        1       8      24   
    235        1       8      25   
    236        1       8      26   
    237        1       8      27   
    238        1       8      28   
    239        1       8      29   
    240        1       8      30   
    241        1       9       1   
    242        1       9       2   
    243        1       9       3   
    244        1       9       4   
    245        1       9       5   
    246        1       9       6   
    247        1       9       7   
    248        1       9       8   
    249        1       9       9   
    250        1       9      10   
    251        1       9      11   
    252        1       9      12   
    253        1       9      13   
    254        1       9      14   
    255        1       9      15   
    256        1       9      16   
    257        1       9      17   
    258        1       9      18   
    259        1       9      19   
    260        1       9      20   
    261        1       9      21   
    262        1       9      22   
    263        1       9      23   
    264        1       9      24   
    265        1       9      25   
    266        1       9      26   
    267        1       9      27   
    268        1       9      28   
    269        1       9      29   
    270        1       9      30   
    271        1      10       1   
    272        1      10       2   
    273        1      10       3   
    274        1      10       4   
    275        1      10       5   
    276        1      10       6   
    277        1      10       7   
    278        1      10       8   
    279        1      10       9   
    280        1      10      10   
    281        1      10      11   
    282        1      10      12   
    283        1      10      13   
    284        1      10      14   
    285        1      10      15   
    286        1      10      16   
    287        1      10      17   
    288        1      10      18   
    289        1      10      19   
    290        1      10      20   
    291        1      10      21   
    292        1      10      22   
    293        1      10      23   
    294        1      10      24   
    295        1      10      25   
    296        1      10      26   
    297        1      10      27   
    298        1      10      28   
    299        1      10      29   
    300        1      10      30   
    301        1      11       1   
    302        1      11       2   
    303        1      11       3   
    304        1      11       4   
    305        1      11       5   
    306        1      11       6   
    307        1      11       7   
    308        1      11       8   
    309        1      11       9   
    310        1      11      10   
    311        1      11      11   
    312        1      11      12   
    313        1      11      13   
    314        1      11      14   
    315        1      11      15   
    316        1      11      16   
    317        1      11      17   
    318        1      11      18   
    319        1      11      19   
    320        1      11      20   
    321        1      11      21   
    322        1      11      22   
    323        1      11      23   
    324        1      11      24   
    325        1      11      25   
    326        1      11      26   
    327        1      11      27   
    328        1      11      28   
    329        1      11      29   
    330        1      11      30   
    331        1      12       1   
    332        1      12       2   
    333        1      12       3   
    334        1      12       4   
    335        1      12       5   
    336        1      12       6   
    337        1      12       7   
    338        1      12       8   
    339        1      12       9   
    340        1      12      10   
    341        1      12      11   
    342        1      12      12   
    343        1      12      13   
    344        1      12      14   
    345        1      12      15   
    346        1      12      16   
    347        1      12      17   
    348        1      12      18   
    349        1      12      19   
    350        1      12      20   
    351        1      12      21   
    352        1      12      22   
    353        1      12      23   
    354        1      12      24   
    355        1      12      25   
    356        1      12      26   
    357        1      12      27   
    358        1      12      28   
    359        1      12      29   
    360        1      12      30   
    361        1      13       1   
    362        1      13       2   
    363        1      13       3   
    364        1      13       4   
    365        1      13       5   
    366        1      13       6   
    367        1      13       7   
    368        1      13       8   
    369        1      13       9   
    370        1      13      10   
    371        1      13      11   
    372        1      13      12   
    373        1      13      13   
    374        1      13      14   
    375        1      13      15   
    376        1      13      16   
    377        1      13      17   
    378        1      13      18   
    379        1      13      19   
    380        1      13      20   
    381        1      13      21   
    382        1      13      22   
    383        1      13      23   
    384        1      13      24   
    385        1      13      25   
    386        1      13      26   
    387        1      13      27   
    388        1      13      28   
    389        1      13      29   
    390        1      13      30   
    391        1      14       1   
    392        1      14       2   
    393        1      14       3   
    394        1      14       4   
    395        1      14       5   
    396        1      14       6   
    397        1      14       7   
    398        1      14       8   
    399        1      14       9   
    400        1      14      10   
    401        1      14      11   
    402        1      14      12   
    403        1      14      13   
    404        1      14      14   
    405        1      14      15   
    406        1      14      16   
    407        1      14      17   
    408        1      14      18   
    409        1      14      19   
    410        1      14      20   
    411        1      14      21   
    412        1      14      22   
    413        1      14      23   
    414        1      14      24   
    415        1      14      25   
    416        1      14      26   
    417        1      14      27   
    418        1      14      28   
    419        1      14      29   
    420        1      14      30   
    421        1      15       1   
    422        1      15       2   
    423        1      15       3   
    424        1      15       4   
    425        1      15       5   
    426        1      15       6   
    427        1      15       7   
    428        1      15       8   
    429        1      15       9   
    430        1      15      10   
    431        1      15      11   
    432        1      15      12   
    433        1      15      13   
    434        1      15      14   
    435        1      15      15   
    436        1      15      16   
    437        1      15      17   
    438        1      15      18   
    439        1      15      19   
    440        1      15      20   
    441        1      15      21   
    442        1      15      22   
    443        1      15      23   
    444        1      15      24   
    445        1      15      25   
    446        1      15      26   
    447        1      15      27   
    448        1      15      28   
    449        1      15      29   
    450        1      15      30   
    451        1      16       1   
    452        1      16       2   
    453        1      16       3   
    454        1      16       4   
    455        1      16       5   
    456        1      16       6   
    457        1      16       7   
    458        1      16       8   
    459        1      16       9   
    460        1      16      10   
    461        1      16      11   
    462        1      16      12   
    463        1      16      13   
    464        1      16      14   
    465        1      16      15   
    466        1      16      16   
    467        1      16      17   
    468        1      16      18   
    469        1      16      19   
    470        1      16      20   
    471        1      16      21   
    472        1      16      22   
    473        1      16      23   
    474        1      16      24   
    475        1      16      25   
    476        1      16      26   
    477        1      16      27   
    478        1      16      28   
    479        1      16      29   
    480        1      16      30   
    481        1      17       1   
    482        1      17       2   
    483        1      17       3   
    484        1      17       4   
    485        1      17       5   
    486        1      17       6   
    487        1      17       7   
    488        1      17       8   
    489        1      17       9   
    490        1      17      10   
    491        1      17      11   
    492        1      17      12   
    493        1      17      13   
    494        1      17      14   
    495        1      17      15   
    496        1      17      16   
    497        1      17      17   
    498        1      17      18   
    499        1      17      19   
    500        1      17      20   
    501        1      17      21   
    502        1      17      22   
    503        1      17      23   
    504        1      17      24   
    505        1      17      25   
    506        1      17      26   
    507        1      17      27   
    508        1      17      28   
    509        1      17      29   
    510        1      17      30   
    511        1      18       1   
    512        1      18       2   
    513        1      18       3   
    514        1      18       4   
    515        1      18       5   
    516        1      18       6   
    517        1      18       7   
    518        1      18       8   
    519        1      18       9   
    520        1      18      10   
    521        1      18      11   
    522        1      18      12   
    523        1      18      13   
    524        1      18      14   
    525        1      18      15   
    526        1      18      16   
    527        1      18      17   
    528        1      18      18   
    529        1      18      19   
    530        1      18      20   
    531        1      18      21   
    532        1      18      22   
    533        1      18      23   
    534        1      18      24   
    535        1      18      25   
    536        1      18      26   
    537        1      18      27   
    538        1      18      28   
    539        1      18      29   
    540        1      18      30   
    541        1      19       1   
    542        1      19       2   
    543        1      19       3   
    544        1      19       4   
    545        1      19       5   
    546        1      19       6   
    547        1      19       7   
    548        1      19       8   
    549        1      19       9   
    550        1      19      10   
    551        1      19      11   
    552        1      19      12   
    553        1      19      13   
    554        1      19      14   
    555        1      19      15   
    556        1      19      16   
    557        1      19      17   
    558        1      19      18   
    559        1      19      19   
    560        1      19      20   
    561        1      19      21   
    562        1      19      22   
    563        1      19      23   
    564        1      19      24   
    565        1      19      25   
    566        1      19      26   
    567        1      19      27   
    568        1      19      28   
    569        1      19      29   
    570        1      19      30   
    571        1      20       1   
    572        1      20       2   
    573        1      20       3   
    574        1      20       4   
    575        1      20       5   
    576        1      20       6   
    577        1      20       7   
    578        1      20       8   
    579        1      20       9   
    580        1      20      10   
    581        1      20      11   
    582        1      20      12   
    583        1      20      13   
    584        1      20      14   
    585        1      20      15   
    586        1      20      16   
    587        1      20      17   
    588        1      20      18   
    589        1      20      19   
    590        1      20      20   
    591        1      20      21   
    592        1      20      22   
    593        1      20      23   
    594        1      20      24   
    595        1      20      25   
    596        1      20      26   
    597        1      20      27   
    598        1      20      28   
    599        1      20      29   
    600        1      20      30   
 ----------------------------------


 ----------------------------------
  CHD NO.    LAYER    ROW     COL  
 ----------------------------------
     1         1       1       1   
     2         1       1      30   
     3         1       2       1   
     4         1       2      30   
     5         1       3       1   
     6         1       3      30   
     7         1       4       1   
     8         1       4      30   
     9         1       5       1   
     10        1       5      30   
     11        1       6       1   
     12        1       6      30   
     13        1       7       1   
     14        1       7      30   
     15        1       8       1   
     16        1       8      30   
     17        1       9       1   
     18        1       9      30   
     19        1      10       1   
     20        1      10      30   
     21        1      11       1   
     22        1      11      30   
     23        1      12       1   
     24        1      12      30   
     25        1      13       1   
     26        1      13      30   
     27        1      14       1   
     28        1      14      30   
     29        1      15       1   
     30        1      15      30   
     31        1      16       1   
     32        1      16      30   
     33        1      17       1   
     34        1      17      30   
     35        1      18       1   
     36        1      18      30   
     37        1      19       1   
     38        1      19      30   
     39        1      20       1   
     40        1      20      30   
 ----------------------------------


 UBDSV1 SAVING           STO-SS ON UNIT   1016 AT TIME STEP      1, STRESS PERIOD      1
 UBDSV1 SAVING           STO-SY ON UNIT   1016 AT TIME STEP      1, STRESS PERIOD      1
 UBDSV1 SAVING     FLOW-JA-FACE ON UNIT   1016 AT TIME STEP      1, STRESS PERIOD      1
 UBDSV06 SAVING       DATA-SPDIS IN MODEL MF6_DEMO         PACKAGE NPF             CONNECTED TO MODEL MF6_DEMO         PACKAGE NPF              ON UNIT   1016 AT TIME STEP      1, STRESS PERIOD      1
 UBDSV06 SAVING         DATA-SAT IN MODEL MF6_DEMO         PACKAGE NPF             CONNECTED TO MODEL MF6_DEMO         PACKAGE NPF              ON UNIT   1016 AT TIME STEP      1, STRESS PERIOD      1
 UBDSV06 SAVING              WEL IN MODEL MF6_DEMO         PACKAGE MF6_DEMO        CONNECTED TO MODEL MF6_DEMO         PACKAGE WEL_0            ON UNIT   1016 AT TIME STEP      1, STRESS PERIOD      1
 UBDSV06 SAVING              RCH IN MODEL MF6_DEMO         PACKAGE MF6_DEMO        CONNECTED TO MODEL MF6_DEMO         PACKAGE RCH_0            ON UNIT   1016 AT TIME STEP      1, STRESS PERIOD      1
 UBDSV06 SAVING              CHD IN MODEL MF6_DEMO         PACKAGE MF6_DEMO        CONNECTED TO MODEL MF6_DEMO         PACKAGE CHD_0            ON UNIT   1016 AT TIME STEP      1, STRESS PERIOD      1

    CALCULATED INTERCELL FLOW FOR PERIOD 1 STEP 1
(1,1,1): (1,1,2) 49.0079 (1,2,1) 0.00000 (2,1,1) 28.0095
(1,1,2): (1,1,1) -49.0079 (1,1,3) 38.6477 (1,2,2) 3.017371E-02 (2,1,2) 0.330077
(1,1,3): (1,1,2) -38.6477 (1,1,4) 32.3472 (1,2,3) 6.016626E-02 (2,1,3) -3.75975
(1,1,4): (1,1,3) -32.3472 (1,1,5) 26.5897 (1,2,4) 9.419101E-02 (2,1,4) -4.33663
(1,1,5): (1,1,4) -26.5897 (1,1,6) 20.8252 (1,2,5) 0.134702 (2,1,5) -4.37022
(1,1,6): (1,1,5) -20.8252 (1,1,7) 14.9695 (1,2,6) 0.183991 (2,1,6) -4.32828
(1,1,7): (1,1,6) -14.9695 (1,1,8) 9.01322 (1,2,7) 0.244312 (2,1,7) -4.28805
(1,1,8): (1,1,7) -9.01322 (1,1,9) 2.95813 (1,2,8) 0.317672 (2,1,8) -4.26258
(1,1,9): (1,1,8) -2.95813 (1,1,10) -3.19299 (1,2,9) 0.405365 (2,1,9) -4.25424
(1,1,10): (1,1,9) 3.19299 (1,1,11) -9.43633 (1,2,10) 0.507232 (2,1,10) -4.26390
(1,1,11): (1,1,10) 9.43633 (1,1,12) -15.7645 (1,2,11) 0.620689 (2,1,11) -4.29257
(1,1,12): (1,1,11) 15.7645 (1,1,13) -22.1624 (1,2,12) 0.739682 (2,1,12) -4.34173
(1,1,13): (1,1,12) 22.1624 (1,1,14) -28.6031 (1,2,13) 0.854021 (2,1,13) -4.41336
(1,1,14): (1,1,13) 28.6031 (1,1,15) -35.0430 (1,2,14) 0.949848 (2,1,14) -4.50995
(1,1,15): (1,1,14) 35.0430 (1,1,16) -41.4205 (1,2,15) 1.01200 (2,1,15) -4.63444
(1,1,16): (1,1,15) 41.4205 (1,1,17) -47.6588 (1,2,16) 1.02844 (2,1,16) -4.79020
(1,1,17): (1,1,16) 47.6588 (1,1,18) -53.6727 (1,2,17) 0.995069 (2,1,17) -4.98108
(1,1,18): (1,1,17) 53.6727 (1,1,19) -59.3790 (1,2,18) 0.917922 (2,1,18) -5.21169
(1,1,19): (1,1,18) 59.3790 (1,1,20) -64.7015 (1,2,19) 0.810423 (2,1,19) -5.48786
(1,1,20): (1,1,19) 64.7015 (1,1,21) -69.5724 (1,2,20) 0.688272 (2,1,20) -5.81734
(1,1,21): (1,1,20) 69.5724 (1,1,22) -73.9268 (1,2,21) 0.565132 (2,1,21) -6.21074
(1,1,22): (1,1,21) 73.9268 (1,1,23) -77.6946 (1,2,22) 0.450542 (2,1,22) -6.68271
(1,1,23): (1,1,22) 77.6946 (1,1,24) -80.7907 (1,2,23) 0.349741 (2,1,23) -7.25363
(1,1,24): (1,1,23) 80.7907 (1,1,25) -83.1033 (1,2,24) 0.264547 (2,1,24) -7.95197
(1,1,25): (1,1,24) 83.1033 (1,1,26) -84.4812 (1,2,25) 0.194499 (2,1,25) -8.81656
(1,1,26): (1,1,25) 84.4812 (1,1,27) -84.7289 (1,2,26) 0.137895 (2,1,26) -9.89025
(1,1,27): (1,1,26) 84.7289 (1,1,28) -83.6848 (1,2,27) 9.255388E-02 (2,1,27) -11.1367
(1,1,28): (1,1,27) 83.6848 (1,1,29) -82.0636 (1,2,28) 5.628455E-02 (2,1,28) -11.6776
(1,1,29): (1,1,28) 82.0636 (1,1,30) -90.0230 (1,2,29) 2.699898E-02 (2,1,29) -2.06763
(1,1,30): (1,1,29) 90.0230 (1,2,30) 0.00000 (2,1,30) 136.221
(1,2,1): (1,1,1) 0.00000 (1,2,2) 49.0381 (1,3,1) 0.00000 (2,2,1) 28.0268
(1,2,2): (1,1,2) -3.017371E-02 (1,2,1) -49.0381 (1,2,3) 38.6776 (1,3,2) 5.823066E-02 (2,2,2) 0.332371
(1,2,3): (1,1,3) -6.016626E-02 (1,2,2) -38.6776 (1,2,4) 32.3813 (1,3,3) 0.116177 (2,2,3) -3.75965
(1,2,4): (1,1,4) -9.419101E-02 (1,2,3) -32.3813 (1,2,5) 26.6302 (1,3,4) 0.182079 (2,2,4) -4.33683
(1,2,5): (1,1,5) -0.134702 (1,2,4) -26.6302 (1,2,6) 20.8745 (1,3,5) 0.260829 (2,2,5) -4.37041
(1,2,6): (1,1,6) -0.183991 (1,2,5) -20.8745 (1,2,7) 15.0298 (1,3,6) 0.357089 (2,2,6) -4.32842
(1,2,7): (1,1,7) -0.244312 (1,2,6) -15.0298 (1,2,8) 9.08658 (1,3,7) 0.475617 (2,2,7) -4.28808
(1,2,8): (1,1,8) -0.317672 (1,2,7) -9.08658 (1,2,9) 3.04582 (1,3,8) 0.620887 (2,2,8) -4.26245
(1,2,9): (1,1,9) -0.405365 (1,2,8) -3.04582 (1,2,10) -3.09113 (1,3,9) 0.796207 (2,2,9) -4.25390
(1,2,10): (1,1,10) -0.507232 (1,2,9) 3.09113 (1,2,11) -9.32288 (1,3,10) 1.00224 (2,2,10) -4.26328
(1,2,11): (1,1,11) -0.620689 (1,2,10) 9.32288 (1,2,12) -15.6455 (1,3,11) 1.23488 (2,2,11) -4.29162
(1,2,12): (1,1,12) -0.739682 (1,2,11) 15.6455 (1,2,13) -22.0481 (1,3,12) 1.48273 (2,2,12) -4.34044
(1,2,13): (1,1,13) -0.854021 (1,2,12) 22.0481 (1,2,14) -28.5073 (1,3,13) 1.72501 (2,2,13) -4.41182
(1,2,14): (1,1,14) -0.949848 (1,2,13) 28.5073 (1,2,15) -34.9809 (1,3,14) 1.93175 (2,2,14) -4.50835
(1,2,15): (1,1,15) -1.01200 (1,2,14) 34.9809 (1,2,16) -41.4041 (1,3,15) 2.06833 (2,2,15) -4.63307
(1,2,16): (1,1,16) -1.02844 (1,2,15) 41.4041 (1,2,17) -47.6921 (1,3,16) 2.10580 (2,2,16) -4.78938
(1,2,17): (1,1,17) -0.995069 (1,2,16) 47.6921 (1,2,18) -53.7499 (1,3,17) 2.03382 (2,2,17) -4.98107
(1,2,18): (1,1,18) -0.917922 (1,2,17) 53.7499 (1,2,19) -59.4864 (1,3,18) 1.86701 (2,2,18) -5.21260
(1,2,19): (1,1,19) -0.810423 (1,2,18) 59.4864 (1,2,20) -64.8236 (1,3,19) 1.63718 (2,2,19) -5.48963
(1,2,20): (1,1,20) -0.688272 (1,2,19) 64.8236 (1,2,21) -69.6954 (1,3,20) 1.37991 (2,2,20) -5.81981
(1,2,21): (1,1,21) -0.565132 (1,2,20) 69.6954 (1,2,22) -74.0412 (1,3,21) 1.12457 (2,2,21) -6.21369
(1,2,22): (1,1,22) -0.450542 (1,2,21) 74.0412 (1,2,23) -77.7952 (1,3,22) 0.890433 (2,2,22) -6.68591
(1,2,23): (1,1,23) -0.349741 (1,2,22) 77.7952 (1,2,24) -80.8757 (1,3,23) 0.687148 (2,2,23) -7.25691
(1,2,24): (1,1,24) -0.264547 (1,2,23) 80.8757 (1,2,25) -83.1731 (1,3,24) 0.517239 (2,2,24) -7.95523
(1,2,25): (1,1,25) -0.194499 (1,2,24) 83.1731 (1,2,26) -84.5376 (1,3,25) 0.378812 (2,2,25) -8.81976
(1,2,26): (1,1,26) -0.137895 (1,2,25) 84.5376 (1,2,27) -84.7740 (1,3,26) 0.267773 (2,2,26) -9.89342
(1,2,27): (1,1,27) -9.255388E-02 (1,2,26) 84.7740 (1,2,28) -83.7208 (1,3,27) 0.179346 (2,2,27) -11.1399
(1,2,28): (1,1,28) -5.628455E-02 (1,2,27) 83.7208 (1,2,29) -82.0925 (1,3,28) 0.108917 (2,2,28) -11.6809
(1,2,29): (1,1,29) -2.699898E-02 (1,2,28) 82.0925 (1,2,30) -90.0487 (1,3,29) 5.214286E-02 (2,2,29) -2.06902
(1,2,30): (1,1,30) 0.00000 (1,2,29) 90.0487 (1,3,30) 0.00000 (2,2,30) 136.255
(1,3,1): (1,2,1) 0.00000 (1,3,2) 49.0963 (1,4,1) 0.00000 (2,3,1) 28.0602
(1,3,2): (1,2,2) -5.823066E-02 (1,3,1) -49.0963 (1,3,3) 38.7356 (1,4,2) 8.212808E-02 (2,3,2) 0.336803
(1,3,3): (1,2,3) -0.116177 (1,3,2) -38.7356 (1,3,4) 32.4472 (1,4,3) 0.164022 (2,3,3) -3.75943
(1,3,4): (1,2,4) -0.182079 (1,3,3) -32.4472 (1,3,5) 26.7089 (1,4,4) 0.257507 (2,3,4) -4.33720
(1,3,5): (1,2,5) -0.260829 (1,3,4) -26.7089 (1,3,6) 20.9707 (1,4,5) 0.369836 (2,3,5) -4.37080
(1,3,6): (1,2,6) -0.357089 (1,3,5) -20.9707 (1,3,7) 15.1483 (1,4,6) 0.508187 (2,3,6) -4.32869
(1,3,7): (1,2,7) -0.475617 (1,3,6) -15.1483 (1,3,8) 9.23185 (1,4,7) 0.680242 (2,3,7) -4.28815
(1,3,8): (1,2,8) -0.620887 (1,3,7) -9.23185 (1,3,9) 3.22114 (1,4,8) 0.893803 (2,3,8) -4.26222
(1,3,9): (1,2,9) -0.796207 (1,3,8) -3.22114 (1,3,10) -2.88509 (1,4,9) 1.15565 (2,3,9) -4.25323
(1,3,10): (1,2,10) -1.00224 (1,3,9) 2.88509 (1,3,11) -9.09024 (1,4,10) 1.46939 (2,3,10) -4.26203
(1,3,11): (1,2,11) -1.23488 (1,3,10) 9.09024 (1,3,12) -15.3976 (1,4,11) 1.83194 (2,3,11) -4.28969
(1,3,12): (1,2,12) -1.48273 (1,3,11) 15.3976 (1,3,13) -21.8058 (1,4,12) 2.22869 (2,3,12) -4.33781
(1,3,13): (1,2,13) -1.72501 (1,3,12) 21.8058 (1,3,14) -28.3006 (1,4,13) 2.62837 (2,3,13) -4.40863
(1,3,14): (1,2,14) -1.93175 (1,3,13) 28.3006 (1,3,15) -34.8443 (1,4,14) 2.98049 (2,3,14) -4.50500
(1,3,15): (1,2,15) -2.06833 (1,3,14) 34.8443 (1,3,16) -41.3667 (1,4,15) 3.22090 (2,3,15) -4.63020
(1,3,16): (1,2,16) -2.10580 (1,3,15) 41.3667 (1,3,17) -47.7641 (1,4,16) 3.29096 (2,3,16) -4.78771
(1,3,17): (1,2,17) -2.03382 (1,3,16) 47.7641 (1,3,18) -53.9166 (1,4,17) 3.16752 (2,3,17) -4.98117
(1,3,18): (1,2,18) -1.86701 (1,3,17) 53.9166 (1,3,19) -59.7161 (1,4,18) 2.88119 (2,3,18) -5.21466
(1,3,19): (1,2,19) -1.63718 (1,3,18) 59.7161 (1,3,20) -65.0807 (1,4,19) 2.49524 (2,3,19) -5.49348
(1,3,20): (1,2,20) -1.37991 (1,3,19) 65.0807 (1,3,21) -69.9506 (1,4,20) 2.07484 (2,3,20) -5.82502
(1,3,21): (1,2,21) -1.12457 (1,3,20) 69.9506 (1,3,22) -74.2751 (1,4,21) 1.66892 (2,3,21) -6.21977
(1,3,22): (1,2,22) -0.890433 (1,3,21) 74.2751 (1,3,23) -77.9982 (1,4,22) 1.30599 (2,3,22) -6.69244
(1,3,23): (1,2,23) -0.687148 (1,3,22) 77.9982 (1,3,24) -81.0453 (1,4,23) 0.997779 (2,3,23) -7.26356
(1,3,24): (1,2,24) -0.517239 (1,3,23) 81.0453 (1,3,25) -83.3112 (1,4,24) 0.744917 (2,3,24) -7.96180
(1,3,25): (1,2,25) -0.378812 (1,3,24) 83.3112 (1,3,26) -84.6483 (1,4,25) 0.542037 (2,3,25) -8.82620
(1,3,26): (1,2,26) -0.267773 (1,3,25) 84.6483 (1,3,27) -84.8620 (1,4,26) 0.381281 (2,3,26) -9.89980
(1,3,27): (1,2,27) -0.179346 (1,3,26) 84.8620 (1,3,28) -83.7907 (1,4,27) 0.254457 (2,3,27) -11.1464
(1,3,28): (1,2,28) -0.108917 (1,3,27) 83.7907 (1,3,29) -82.1485 (1,4,28) 0.154164 (2,3,28) -11.6875
(1,3,29): (1,2,29) -5.214286E-02 (1,3,28) 82.1485 (1,3,30) -90.0984 (1,4,29) 7.370942E-02 (2,3,29) -2.07167
(1,3,30): (1,2,30) 0.00000 (1,3,29) 90.0984 (1,4,30) 0.00000 (2,3,30) 136.321
(1,4,1): (1,3,1) 0.00000 (1,4,2) 49.1784 (1,5,1) 0.00000 (2,4,1) 28.1072
(1,4,2): (1,3,2) -8.212808E-02 (1,4,1) -49.1784 (1,4,3) 38.8175 (1,5,2) 0.100008 (2,4,2) 0.343043
(1,4,3): (1,3,3) -0.164022 (1,4,2) -38.8175 (1,4,4) 32.5406 (1,5,3) 0.199978 (2,4,3) -3.75913
(1,4,4): (1,3,4) -0.257507 (1,4,3) -32.5406 (1,4,5) 26.8213 (1,5,4) 0.314634 (2,4,4) -4.33775
(1,4,5): (1,3,5) -0.369836 (1,4,4) -26.8213 (1,4,6) 21.1091 (1,5,5) 0.453383 (2,4,5) -4.37137
(1,4,6): (1,3,6) -0.508187 (1,4,5) -21.1091 (1,4,7) 15.3204 (1,5,6) 0.625975 (2,4,6) -4.32909
(1,4,7): (1,3,7) -0.680242 (1,4,6) -15.3204 (1,4,8) 9.44541 (1,5,7) 0.843466 (2,4,7) -4.28826
(1,4,8): (1,3,8) -0.893803 (1,4,7) -9.44541 (1,4,9) 3.48299 (1,5,8) 1.11809 (2,4,8) -4.26188
(1,4,9): (1,3,9) -1.15565 (1,4,8) -3.48299 (1,4,10) -2.57135 (1,5,9) 1.46222 (2,4,9) -4.25224
(1,4,10): (1,3,10) -1.46939 (1,4,9) 2.57135 (1,4,11) -8.72770 (1,5,10) 1.88587 (2,4,10) -4.26016
(1,4,11): (1,3,11) -1.83194 (1,4,10) 8.72770 (1,4,12) -15.0009 (1,5,11) 2.39184 (2,4,11) -4.28673
(1,4,12): (1,3,12) -2.22869 (1,4,11) 15.0009 (1,4,13) -21.4062 (1,5,12) 2.96761 (2,4,12) -4.33368
(1,4,13): (1,3,13) -2.62837 (1,4,12) 21.4062 (1,4,14) -27.9485 (1,5,13) 3.57420 (2,4,13) -4.40354
(1,4,14): (1,3,14) -2.98049 (1,4,13) 27.9485 (1,4,15) -34.6039 (1,5,14) 4.13553 (2,4,14) -4.49961
(1,4,15): (1,3,15) -3.22090 (1,4,14) 34.6039 (1,4,16) -41.2966 (1,5,15) 4.53923 (2,4,15) -4.62563
(1,4,16): (1,3,16) -3.29096 (1,4,15) 41.2966 (1,4,17) -47.8875 (1,5,16) 4.66717 (2,4,16) -4.78531
(1,4,17): (1,3,17) -3.16752 (1,4,16) 47.8875 (1,4,18) -54.2029 (1,5,17) 4.46474 (2,4,17) -4.98192
(1,4,18): (1,3,18) -2.88119 (1,4,17) 54.2029 (1,4,19) -60.1019 (1,5,18) 3.99896 (2,4,18) -5.21874
(1,4,19): (1,3,19) -2.49524 (1,4,18) 60.1019 (1,4,20) -65.5008 (1,5,19) 3.39450 (2,4,19) -5.50035
(1,4,20): (1,3,20) -2.07484 (1,4,19) 65.5008 (1,4,21) -70.3561 (1,5,20) 2.76401 (2,4,20) -5.83383
(1,4,21): (1,3,21) -1.66892 (1,4,20) 70.3561 (1,4,22) -74.6376 (1,5,21) 2.18009 (2,4,21) -6.22965
(1,4,22): (1,3,22) -1.30599 (1,4,21) 74.6376 (1,4,23) -78.3060 (1,5,22) 1.67706 (2,4,22) -6.70266
(1,4,23): (1,3,23) -0.997779 (1,4,22) 78.3060 (1,4,24) -81.2977 (1,5,23) 1.26320 (2,4,23) -7.27366
(1,4,24): (1,3,24) -0.744917 (1,4,23) 81.2977 (1,4,25) -83.5135 (1,5,24) 0.932417 (2,4,24) -7.97154
(1,4,25): (1,3,25) -0.542037 (1,4,24) 83.5135 (1,4,26) -84.8085 (1,5,25) 0.672536 (2,4,25) -8.83556
(1,4,26): (1,3,26) -0.381281 (1,4,25) 84.8085 (1,4,27) -84.9882 (1,5,26) 0.469986 (2,4,26) -9.90894
(1,4,27): (1,3,27) -0.254457 (1,4,26) 84.9882 (1,4,28) -83.8902 (1,5,27) 0.312192 (2,4,27) -11.1556
(1,4,28): (1,3,28) -0.154164 (1,4,27) 83.8902 (1,4,29) -82.2278 (1,5,28) 0.188539 (2,4,28) -11.6968
(1,4,29): (1,3,29) -7.370942E-02 (1,4,28) 82.2278 (1,4,30) -90.1686 (1,5,29) 8.997889E-02 (2,4,29) -2.07550
(1,4,30): (1,3,30) 0.00000 (1,4,29) 90.1686 (1,5,30) 0.00000 (2,4,30) 136.415
(1,5,1): (1,4,1) 0.00000 (1,5,2) 49.2784 (1,6,1) 0.00000 (2,5,1) 28.1645
(1,5,2): (1,4,2) -0.100008 (1,5,1) -49.2784 (1,5,3) 38.9174 (1,6,2) 0.110325 (2,5,2) 0.350630
(1,5,3): (1,4,3) -0.199978 (1,5,2) -38.9174 (1,5,4) 32.6553 (1,6,3) 0.220891 (2,5,3) -3.75879
(1,5,4): (1,4,4) -0.314634 (1,5,3) -32.6553 (1,5,5) 26.9600 (1,6,4) 0.348339 (2,5,4) -4.33843
(1,5,5): (1,4,5) -0.453383 (1,5,4) -26.9600 (1,5,6) 21.2817 (1,6,5) 0.503791 (2,5,5) -4.37208
(1,5,6): (1,4,6) -0.625975 (1,5,5) -21.2817 (1,5,7) 15.5379 (1,6,6) 0.699370 (2,5,6) -4.32960
(1,5,7): (1,4,7) -0.843466 (1,5,6) -15.5379 (1,5,8) 9.72003 (1,6,7) 0.949710 (2,5,7) -4.28841
(1,5,8): (1,4,8) -1.11809 (1,5,7) -9.72003 (1,5,9) 3.82713 (1,6,8) 1.27247 (2,5,8) -4.26147
(1,5,9): (1,4,9) -1.46222 (1,5,8) -3.82713 (1,5,10) -2.14770 (1,6,9) 1.68802 (2,5,9) -4.25098
(1,5,10): (1,4,10) -1.88587 (1,5,9) 2.14770 (1,5,11) -8.22173 (1,6,10) 2.21759 (2,5,10) -4.25769
(1,5,11): (1,4,11) -2.39184 (1,5,10) 8.22173 (1,5,12) -14.4251 (1,6,11) 2.87792 (2,5,11) -4.28269
(1,5,12): (1,4,12) -2.96761 (1,5,11) 14.4251 (1,5,13) -20.7996 (1,6,12) 3.66992 (2,5,12) -4.32785
(1,5,13): (1,4,13) -3.57420 (1,5,12) 20.7996 (1,5,14) -27.3872 (1,6,13) 4.55789 (2,5,13) -4.39610
(1,5,14): (1,4,14) -4.13553 (1,5,13) 27.3872 (1,5,15) -34.2003 (1,6,14) 5.44016 (2,5,14) -4.49151
(1,5,15): (1,4,15) -4.53923 (1,5,14) 34.2003 (1,5,16) -41.1687 (1,6,15) 6.12642 (2,5,15) -4.61874
(1,5,16): (1,4,16) -4.66717 (1,5,15) 41.1687 (1,5,17) -48.0900 (1,6,16) 6.37044 (2,5,16) -4.78203
(1,5,17): (1,4,17) -4.46474 (1,5,16) 48.0900 (1,5,18) -54.6685 (1,6,17) 6.02737 (2,5,17) -4.98407
(1,5,18): (1,4,18) -3.99896 (1,5,17) 54.6685 (1,5,19) -60.7061 (1,6,18) 5.26272 (2,5,18) -5.22616
(1,5,19): (1,4,19) -3.39450 (1,5,18) 60.7061 (1,5,20) -66.1309 (1,6,19) 4.33101 (2,5,19) -5.51168
(1,5,20): (1,4,20) -2.76401 (1,5,19) 66.1309 (1,5,21) -70.9396 (1,6,20) 3.42011 (2,5,20) -5.84743
(1,5,21): (1,4,21) -2.18009 (1,5,20) 70.9396 (1,5,22) -75.1401 (1,6,21) 2.62470 (2,5,21) -6.24411
(1,5,22): (1,4,22) -1.67706 (1,5,21) 75.1401 (1,5,23) -78.7192 (1,6,22) 1.97323 (2,5,22) -6.71703
(1,5,23): (1,4,23) -1.26320 (1,5,22) 78.7192 (1,5,24) -81.6278 (1,6,23) 1.45912 (2,5,23) -7.28738
(1,5,24): (1,4,24) -0.932417 (1,5,23) 81.6278 (1,5,25) -83.7727 (1,6,24) 1.06178 (2,5,24) -7.98442
(1,5,25): (1,4,25) -0.672536 (1,5,24) 83.7727 (1,5,26) -85.0103 (1,6,25) 0.757701 (2,5,25) -8.84765
(1,5,26): (1,4,26) -0.469986 (1,5,25) 85.0103 (1,5,27) -85.1452 (1,6,26) 0.525416 (2,5,26) -9.92052
(1,5,27): (1,4,27) -0.312192 (1,5,26) 85.1452 (1,5,28) -84.0129 (1,6,27) 0.347139 (2,5,27) -11.1671
(1,5,28): (1,4,28) -0.188539 (1,5,27) 84.0129 (1,5,29) -82.3250 (1,6,28) 0.208906 (2,5,28) -11.7082
(1,5,29): (1,4,29) -8.997889E-02 (1,5,28) 82.3250 (1,5,30) -90.2543 (1,6,29) 9.949273E-02 (2,5,29) -2.08021
(1,5,30): (1,4,30) 0.00000 (1,5,29) 90.2543 (1,6,30) 0.00000 (2,5,30) 136.529
(1,6,1): (1,5,1) 0.00000 (1,6,2) 49.3886 (1,7,1) 0.00000 (2,6,1) 28.2276
(1,6,2): (1,5,2) -0.110325 (1,6,1) -49.3886 (1,6,3) 39.0279 (1,7,2) 0.112032 (2,6,2) 0.358984
(1,6,3): (1,5,3) -0.220891 (1,6,2) -39.0279 (1,6,4) 32.7827 (1,7,3) 0.224541 (2,6,3) -3.75841
(1,6,4): (1,5,4) -0.348339 (1,6,3) -32.7827 (1,6,5) 27.1154 (1,7,4) 0.354803 (2,6,4) -4.33919
(1,6,5): (1,5,5) -0.503791 (1,6,4) -27.1154 (1,6,6) 21.4772 (1,7,5) 0.514876 (2,6,5) -4.37289
(1,6,6): (1,5,6) -0.699370 (1,6,5) -21.4772 (1,6,7) 15.7882 (1,7,6) 0.718600 (2,6,6) -4.33020
(1,6,7): (1,5,7) -0.949710 (1,6,6) -15.7882 (1,6,8) 10.0428 (1,7,7) 0.983746 (2,6,7) -4.28862
(1,6,8): (1,5,8) -1.27247 (1,6,7) -10.0428 (1,6,9) 4.24268 (1,7,8) 1.33360 (2,6,8) -4.26103
(1,6,9): (1,5,9) -1.68802 (1,6,8) -4.24268 (1,6,10) -1.61814 (1,7,9) 1.79835 (2,6,9) -4.24952
(1,6,10): (1,5,10) -2.21759 (1,6,9) 1.61814 (1,6,11) -7.56141 (1,7,10) 2.41553 (2,6,10) -4.25470
(1,6,11): (1,5,11) -2.87792 (1,6,10) 7.56141 (1,6,12) -13.6332 (1,7,11) 3.22719 (2,6,11) -4.27754
(1,6,12): (1,5,12) -3.66992 (1,6,11) 13.6332 (1,6,13) -19.9117 (1,7,12) 4.26840 (2,6,12) -4.32000
(1,6,13): (1,5,13) -4.55789 (1,6,12) 19.9117 (1,6,14) -26.5050 (1,7,13) 5.53666 (2,6,13) -4.38546
(1,6,14): (1,5,14) -5.44016 (1,6,13) 26.5050 (1,6,15) -33.5142 (1,7,14) 6.92832 (2,6,14) -4.47903
(1,6,15): (1,5,15) -6.12642 (1,6,14) 33.5142 (1,6,16) -40.9248 (1,7,15) 8.14413 (2,6,15) -4.60706
(1,6,16): (1,5,16) -6.37044 (1,6,15) 40.9248 (1,6,17) -48.4330 (1,7,16) 8.65417 (2,6,16) -4.77557
(1,6,17): (1,5,17) -6.02737 (1,6,16) 48.4330 (1,6,18) -55.4329 (1,7,17) 8.01540 (2,6,17) -4.98813
(1,6,18): (1,5,18) -5.26272 (1,6,17) 55.4329 (1,6,19) -61.6373 (1,7,18) 6.70627 (2,6,18) -5.23912
(1,6,19): (1,5,19) -4.33101 (1,6,18) 61.6373 (1,6,20) -67.0412 (1,7,19) 5.26466 (2,6,19) -5.52979
(1,6,20): (1,5,20) -3.42011 (1,6,19) 67.0412 (1,6,21) -71.7342 (1,7,20) 3.98067 (2,6,20) -5.86747
(1,6,21): (1,5,21) -2.62470 (1,6,20) 71.7342 (1,6,22) -75.7907 (1,7,21) 2.94528 (2,6,21) -6.26403
(1,6,22): (1,5,22) -1.97323 (1,6,21) 75.7907 (1,6,23) -79.2325 (1,7,22) 2.15076 (2,6,22) -6.73574
(1,6,23): (1,5,23) -1.45912 (1,6,22) 79.2325 (1,6,24) -82.0243 (1,7,23) 1.55541 (2,6,23) -7.30446
(1,6,24): (1,5,24) -1.06178 (1,6,23) 82.0243 (1,6,25) -84.0760 (1,7,24) 1.11337 (2,6,24) -7.99987
(1,6,25): (1,5,25) -0.757701 (1,6,24) 84.0760 (1,6,26) -85.2417 (1,7,25) 0.785192 (2,6,25) -8.86176
(1,6,26): (1,5,26) -0.525416 (1,6,25) 85.2417 (1,6,27) -85.3226 (1,7,26) 0.540041 (2,6,26) -9.93376
(1,6,27): (1,5,27) -0.347139 (1,6,26) 85.3226 (1,6,28) -84.1501 (1,7,27) 0.354857 (2,6,27) -11.1801
(1,6,28): (1,5,28) -0.208906 (1,6,27) 84.1501 (1,6,29) -82.4329 (1,7,28) 0.212816 (2,6,28) -11.7210
(1,6,29): (1,5,29) -9.949273E-02 (1,6,28) 82.4329 (1,6,30) -90.3491 (1,7,29) 0.101156 (2,6,29) -2.08549
(1,6,30): (1,5,30) 0.00000 (1,6,29) 90.3491 (1,7,30) 0.00000 (2,6,30) 136.656
(1,7,1): (1,6,1) 0.00000 (1,7,2) 49.5006 (1,8,1) 0.00000 (2,7,1) 28.2916
(1,7,2): (1,6,2) -0.112032 (1,7,1) -49.5006 (1,7,3) 39.1404 (1,8,2) 0.104773 (2,7,2) 0.367456
(1,7,3): (1,6,3) -0.224541 (1,7,2) -39.1404 (1,7,4) 32.9130 (1,8,3) 0.210064 (2,7,3) -3.75804
(1,7,4): (1,6,4) -0.354803 (1,7,3) -32.9130 (1,7,5) 27.2755 (1,8,4) 0.332242 (2,7,4) -4.33998
(1,7,5): (1,6,5) -0.514876 (1,7,4) -27.2755 (1,7,6) 21.6809 (1,8,5) 0.483153 (2,7,5) -4.37373
(1,7,6): (1,6,6) -0.718600 (1,7,5) -21.6809 (1,7,7) 16.0533 (1,8,6) 0.677048 (2,7,6) -4.33084
(1,7,7): (1,6,7) -0.983746 (1,7,6) -16.0533 (1,7,8) 10.3926 (1,8,7) 0.933325 (2,7,7) -4.28887
(1,7,8): (1,6,8) -1.33360 (1,7,7) -10.3926 (1,7,9) 4.70743 (1,8,8) 1.27941 (2,7,8) -4.26060
(1,7,9): (1,6,9) -1.79835 (1,7,8) -4.70743 (1,7,10) -1.00096 (1,8,9) 1.75467 (2,7,9) -4.24795
(1,7,10): (1,6,10) -2.41553 (1,7,9) 1.00096 (1,7,11) -6.74975 (1,8,10) 2.41558 (2,7,10) -4.25128
(1,7,11): (1,6,11) -3.22719 (1,7,10) 6.74975 (1,7,12) -12.5920 (1,8,11) 3.34067 (2,7,11) -4.27128
(1,7,12): (1,6,12) -4.26840 (1,7,11) 12.5920 (1,7,13) -18.6435 (1,8,12) 4.62949 (2,7,12) -4.30962
(1,7,13): (1,6,13) -5.53666 (1,7,12) 18.6435 (1,7,14) -25.1135 (1,8,13) 6.37621 (2,7,13) -4.36957
(1,7,14): (1,6,14) -6.92832 (1,7,13) 25.1135 (1,7,15) -32.2985 (1,8,14) 8.56991 (2,7,14) -4.45653
(1,7,15): (1,6,15) -8.14413 (1,7,14) 32.2985 (1,7,16) -40.4149 (1,8,15) 10.8384 (2,7,15) -4.57783
(1,7,16): (1,6,16) -8.65417 (1,7,15) 40.4149 (1,7,17) -49.0716 (1,8,16) 12.0562 (2,7,16) -4.74532
(1,7,17): (1,6,17) -8.01540 (1,7,16) 49.0716 (1,7,18) -56.7415 (1,8,17) 10.6732 (2,7,17) -4.98790
(1,7,18): (1,6,18) -6.70627 (1,7,17) 56.7415 (1,7,19) -63.0782 (1,8,18) 8.30212 (2,7,18) -5.25921
(1,7,19): (1,6,19) -5.26466 (1,7,18) 63.0782 (1,7,20) -68.3242 (1,8,19) 6.06826 (2,7,19) -5.55754
(1,7,20): (1,6,20) -3.98067 (1,7,19) 68.3242 (1,7,21) -72.7686 (1,8,20) 4.32096 (2,7,20) -5.89584
(1,7,21): (1,6,21) -2.94528 (1,7,20) 72.7686 (1,7,22) -76.5843 (1,8,21) 3.05102 (2,7,21) -6.29009
(1,7,22): (1,6,22) -2.15076 (1,7,21) 76.5843 (1,7,23) -79.8269 (1,8,22) 2.15205 (2,7,22) -6.75863
(1,7,23): (1,6,23) -1.55541 (1,7,22) 79.8269 (1,7,24) -82.4654 (1,8,23) 1.51826 (2,7,23) -7.32428
(1,7,24): (1,6,24) -1.11337 (1,7,23) 82.4654 (1,7,25) -84.4033 (1,8,24) 1.06833 (2,7,24) -8.01709
(1,7,25): (1,6,25) -0.785192 (1,7,24) 84.4033 (1,7,26) -85.4860 (1,8,25) 0.744881 (2,7,25) -8.87700
(1,7,26): (1,6,26) -0.540041 (1,7,25) 85.4860 (1,7,27) -85.5068 (1,8,26) 0.508593 (2,7,26) -9.94774
(1,7,27): (1,6,27) -0.354857 (1,7,26) 85.5068 (1,7,28) -84.2910 (1,8,27) 0.332717 (2,7,27) -11.1936
(1,7,28): (1,6,28) -0.212816 (1,7,27) 84.2910 (1,7,29) -82.5431 (1,8,28) 0.199037 (2,7,28) -11.7342
(1,7,29): (1,6,29) -0.101156 (1,7,28) 82.5431 (1,7,30) -90.4455 (1,8,29) 9.448548E-02 (2,7,29) -2.09092
(1,7,30): (1,6,30) 0.00000 (1,7,29) 90.4455 (1,8,30) 0.00000 (2,7,30) 136.784
(1,8,1): (1,7,1) 0.00000 (1,8,2) 49.6054 (1,9,1) 0.00000 (2,8,1) 28.3515
(1,8,2): (1,7,2) -0.104773 (1,8,1) -49.6054 (1,8,3) 39.2457 (1,9,2) 8.906321E-02 (2,8,2) 0.375373
(1,8,3): (1,7,3) -0.210064 (1,8,2) -39.2457 (1,8,4) 33.0351 (1,9,3) 0.178357 (2,8,3) -3.75771
(1,8,4): (1,7,4) -0.332242 (1,8,3) -33.0351 (1,8,5) 27.4264 (1,9,4) 0.281694 (2,8,4) -4.34073
(1,8,5): (1,7,5) -0.483153 (1,8,4) -27.4264 (1,8,6) 21.8748 (1,9,5) 0.409253 (2,8,5) -4.37454
(1,8,6): (1,7,6) -0.677048 (1,8,5) -21.8748 (1,8,7) 16.3096 (1,9,6) 0.573742 (2,8,6) -4.33147
(1,8,7): (1,7,7) -0.933325 (1,8,6) -16.3096 (1,8,8) 10.7387 (1,9,7) 0.793366 (2,8,7) -4.28914
(1,8,8): (1,7,8) -1.27941 (1,8,7) -10.7387 (1,8,9) 5.18269 (1,9,8) 1.09564 (2,8,8) -4.26021
(1,8,9): (1,7,9) -1.75467 (1,8,8) -5.18269 (1,8,10) -0.340049 (1,9,9) 1.52379 (2,8,9) -4.24639
(1,8,10): (1,7,10) -2.41558 (1,8,9) 0.340049 (1,8,11) -5.82465 (1,9,10) 2.14781 (2,8,10) -4.24765
(1,8,11): (1,7,11) -3.34067 (1,8,10) 5.82465 (1,8,12) -11.3032 (1,9,11) 3.08317 (2,8,11) -4.26400
(1,8,12): (1,7,12) -4.62949 (1,8,11) 11.3032 (1,8,13) -16.8968 (1,9,12) 4.51885 (2,8,12) -4.29576
(1,8,13): (1,7,13) -6.37621 (1,8,12) 16.8968 (1,8,14) -22.9199 (1,9,13) 6.74226 (2,8,13) -4.34296
(1,8,14): (1,7,14) -8.56991 (1,8,13) 22.9199 (1,8,15) -30.0303 (1,9,14) 10.0821 (2,8,14) -4.40176
(1,8,15): (1,7,15) -10.8384 (1,8,14) 30.0303 (1,8,16) -39.1974 (1,9,15) 14.4625 (2,8,15) -4.45706
(1,8,16): (1,7,16) -12.0562 (1,8,15) 39.1974 (1,8,17) -50.4543 (1,9,16) 17.8331 (2,8,16) -4.51998
(1,8,17): (1,7,17) -10.6732 (1,8,16) 50.4543 (1,8,18) -59.1116 (1,9,17) 14.2556 (2,8,17) -4.92506
(1,8,18): (1,7,18) -8.30212 (1,8,17) 59.1116 (1,8,19) -65.3107 (1,9,18) 9.77878 (2,8,18) -5.27756
(1,8,19): (1,7,19) -6.06826 (1,8,18) 65.3107 (1,8,20) -70.0701 (1,9,19) 6.42380 (2,8,19) -5.59603
(1,8,20): (1,7,20) -4.32096 (1,8,19) 70.0701 (1,8,21) -74.0373 (1,9,20) 4.22150 (2,8,20) -5.93337
(1,8,21): (1,7,21) -3.05102 (1,8,20) 74.0373 (1,8,22) -77.4821 (1,9,21) 2.81763 (2,8,21) -6.32178
(1,8,22): (1,7,22) -2.15205 (1,8,21) 77.4821 (1,8,23) -80.4597 (1,9,22) 1.91411 (2,8,22) -6.78448
(1,8,23): (1,7,23) -1.51826 (1,8,22) 80.4597 (1,8,24) -82.9144 (1,9,23) 1.31840 (2,8,23) -7.34538
(1,8,24): (1,7,24) -1.06833 (1,8,23) 82.9144 (1,8,25) -84.7258 (1,9,24) 0.914377 (2,8,24) -8.03462
(1,8,25): (1,7,25) -0.744881 (1,8,24) 84.7258 (1,8,26) -85.7214 (1,9,25) 0.632435 (2,8,25) -8.89202
(1,8,26): (1,7,26) -0.508593 (1,8,25) 85.7214 (1,8,27) -85.6817 (1,9,26) 0.430147 (2,8,26) -9.96120
(1,8,27): (1,7,27) -0.332717 (1,8,26) 85.6817 (1,8,28) -84.4237 (1,9,27) 0.281013 (2,8,27) -11.2063
(1,8,28): (1,7,28) -0.199037 (1,8,27) 84.4237 (1,8,29) -82.6462 (1,9,28) 0.168094 (2,8,28) -11.7465
(1,8,29): (1,7,29) -9.448548E-02 (1,8,28) 82.6462 (1,8,30) -90.5355 (1,9,29) 7.982455E-02 (2,8,29) -2.09603
(1,8,30): (1,7,30) 0.00000 (1,8,29) 90.5355 (1,9,30) 0.00000 (2,8,30) 136.903
(1,9,1): (1,8,1) 0.00000 (1,9,2) 49.6944 (1,10,1) 0.00000 (2,9,1) 28.4025
(1,9,2): (1,8,2) -8.906321E-02 (1,9,1) -49.6944 (1,9,3) 39.3350 (1,10,2) 6.637068E-02 (2,9,2) 0.382113
(1,9,3): (1,8,3) -0.178357 (1,9,2) -39.3350 (1,9,4) 33.1384 (1,10,3) 0.132309 (2,9,3) -3.75741
(1,9,4): (1,8,4) -0.281694 (1,9,3) -33.1384 (1,9,5) 27.5539 (1,10,4) 0.207559 (2,9,4) -4.34137
(1,9,5): (1,8,5) -0.409253 (1,9,4) -27.5539 (1,9,6) 22.0393 (1,10,5) 0.299105 (2,9,5) -4.37522
(1,9,6): (1,8,6) -0.573742 (1,9,5) -22.0393 (1,9,7) 16.5292 (1,10,6) 0.415839 (2,9,6) -4.33201
(1,9,7): (1,8,7) -0.793366 (1,9,6) -16.5292 (1,9,8) 11.0410 (1,10,7) 0.570993 (2,9,7) -4.28938
(1,9,8): (1,8,8) -1.09564 (1,9,7) -11.0410 (1,9,9) 5.61084 (1,10,8) 0.785682 (2,9,8) -4.25990
(1,9,9): (1,8,9) -1.52379 (1,9,8) -5.61084 (1,9,10) 0.283968 (1,10,9) 1.09565 (2,9,9) -4.24500
(1,9,10): (1,8,10) -2.14781 (1,9,9) -0.283968 (1,9,11) -4.88930 (1,10,10) 1.56520 (2,9,10) -4.24416
(1,9,11): (1,8,11) -3.08317 (1,9,10) 4.88930 (1,9,12) -9.86752 (1,10,11) 2.31740 (2,9,11) -4.25605
(1,9,12): (1,8,12) -4.51885 (1,9,11) 9.86752 (1,9,13) -14.6735 (1,10,12) 3.60159 (2,9,12) -4.27680
(1,9,13): (1,8,13) -6.74226 (1,9,12) 14.6735 (1,9,14) -19.5802 (1,10,13) 5.93922 (2,9,13) -4.29022
(1,9,14): (1,8,14) -10.0821 (1,9,13) 19.5802 (1,9,15) -25.6502 (1,10,14) 10.3758 (2,9,14) -4.22379
(1,9,15): (1,8,15) -14.4625 (1,9,14) 25.6502 (1,9,16) -35.8274 (1,10,15) 18.4492 (2,9,15) -3.80939
(1,9,16): (1,8,16) -17.8331 (1,9,15) 35.8274 (1,9,17) -54.0307 (1,10,16) 28.6737 (2,9,16) -2.63740
(1,9,17): (1,8,17) -14.2556 (1,9,16) 54.0307 (1,9,18) -63.5863 (1,10,17) 18.2136 (2,9,17) -4.40247
(1,9,18): (1,8,18) -9.77878 (1,9,17) 63.5863 (1,9,19) -68.6635 (1,10,18) 10.0816 (2,9,18) -5.22561
(1,9,19): (1,8,19) -6.42380 (1,9,18) 68.6635 (1,9,20) -72.2706 (1,10,19) 5.66655 (2,9,19) -5.63561
(1,9,20): (1,8,20) -4.22150 (1,9,19) 72.2706 (1,9,21) -75.4396 (1,10,20) 3.36737 (2,9,20) -5.97678
(1,9,21): (1,8,21) -2.81763 (1,9,20) 75.4396 (1,9,22) -78.3844 (1,10,21) 2.11828 (2,9,21) -6.35585
(1,9,22): (1,8,22) -1.91411 (1,9,21) 78.3844 (1,9,23) -81.0544 (1,10,22) 1.39423 (2,9,22) -6.81014
(1,9,23): (1,8,23) -1.31840 (1,9,22) 81.0544 (1,9,24) -83.3176 (1,10,23) 0.946706 (2,9,23) -7.36507
(1,9,24): (1,8,24) -0.914377 (1,9,23) 83.3176 (1,9,25) -85.0070 (1,10,24) 0.654100 (2,9,24) -8.05028
(1,9,25): (1,8,25) -0.632435 (1,9,24) 85.0070 (1,9,26) -85.9229 (1,10,25) 0.453422 (2,9,25) -8.90505
(1,9,26): (1,8,26) -0.430147 (1,9,25) 85.9229 (1,9,27) -85.8301 (1,10,26) 0.310023 (2,9,26) -9.97267
(1,9,27): (1,8,27) -0.281013 (1,9,26) 85.8301 (1,9,28) -84.5357 (1,10,27) 0.203805 (2,9,27) -11.2171
(1,9,28): (1,8,28) -0.168094 (1,9,27) 84.5357 (1,9,29) -82.7332 (1,10,28) 0.122610 (2,9,28) -11.7570
(1,9,29): (1,8,29) -7.982455E-02 (1,9,28) 82.7332 (1,9,30) -90.6115 (1,10,29) 5.846531E-02 (2,9,29) -2.10035
(1,9,30): (1,8,30) 0.00000 (1,9,29) 90.6115 (1,10,30) 0.00000 (2,9,30) 137.004
(1,10,1): (1,9,1) 0.00000 (1,10,2) 49.7608 (1,11,1) 0.00000 (2,10,1) 28.4406
(1,10,2): (1,9,2) -6.637068E-02 (1,10,1) -49.7608 (1,10,3) 39.4009 (1,11,2) 3.905010E-02 (2,10,2) 0.387164
(1,10,3): (1,9,3) -0.132309 (1,10,2) -39.4009 (1,10,4) 33.2137 (1,11,3) 7.671018E-02 (2,10,3) -3.75718
(1,10,4): (1,9,4) -0.207559 (1,10,3) -33.2137 (1,10,5) 27.6455 (1,11,4) 0.117573 (2,10,4) -4.34182
(1,10,5): (1,9,5) -0.299105 (1,10,4) -27.6455 (1,10,6) 22.1560 (1,11,5) 0.164249 (2,10,5) -4.37570
(1,10,6): (1,9,6) -0.415839 (1,10,5) -22.1560 (1,10,7) 16.6844 (1,11,6) 0.219887 (2,10,6) -4.33238
(1,10,7): (1,9,7) -0.570993 (1,10,6) -16.6844 (1,10,8) 11.2557 (1,11,7) 0.289243 (2,10,7) -4.28954
(1,10,8): (1,9,8) -0.785682 (1,10,7) -11.2557 (1,10,9) 5.92081 (1,11,8) 0.380201 (2,10,8) -4.25966
(1,10,9): (1,9,9) -1.09565 (1,10,8) -5.92081 (1,10,10) 0.753515 (1,11,9) 0.506900 (2,10,9) -4.24396
(1,10,10): (1,9,10) -1.56520 (1,10,9) -0.753515 (1,10,11) -4.13710 (1,11,10) 0.697129 (2,10,10) -4.24135
(1,10,11): (1,9,11) -2.31740 (1,10,10) 4.13710 (1,10,12) -8.58334 (1,11,11) 1.01200 (2,10,11) -4.24838
(1,10,12): (1,9,12) -3.60159 (1,10,11) 8.58334 (1,10,13) -12.3359 (1,11,12) 1.60542 (2,10,12) -4.25132
(1,10,13): (1,9,13) -5.93922 (1,10,12) 12.3359 (1,10,14) -15.1437 (1,11,13) 2.92445 (2,10,13) -4.17739
(1,10,14): (1,9,14) -10.3758 (1,10,13) 15.1437 (1,10,15) -17.5771 (1,11,14) 6.41728 (2,10,14) -3.60813
(1,10,15): (1,9,15) -18.4492 (1,10,14) 17.5771 (1,10,16) -25.6033 (1,11,15) 16.7631 (2,10,15) -0.287659
(1,10,16): (1,9,16) -28.6737 (1,10,15) 25.6033 (1,10,17) -64.4871 (1,11,16) 43.5330 (2,10,16) 14.0245
(1,10,17): (1,9,17) -18.2136 (1,10,16) 64.4871 (1,10,18) -71.7135 (1,11,17) 16.5919 (2,10,17) -1.15183
(1,10,18): (1,9,18) -10.0816 (1,10,17) 71.7135 (1,10,19) -73.0752 (1,11,18) 6.25254 (2,10,18) -4.80935
(1,10,19): (1,9,19) -5.66655 (1,10,18) 73.0752 (1,10,20) -74.5677 (1,11,19) 2.79414 (2,10,19) -5.63509
(1,10,20): (1,9,20) -3.36737 (1,10,19) 74.5677 (1,10,21) -76.6873 (1,11,20) 1.50041 (2,10,20) -6.01333
(1,10,21): (1,9,21) -2.11828 (1,10,20) 76.6873 (1,10,22) -79.1074 (1,11,21) 0.922865 (2,10,21) -6.38445
(1,10,22): (1,9,22) -1.39423 (1,10,21) 79.1074 (1,10,23) -81.5011 (1,11,22) 0.618138 (2,10,22) -6.83022
(1,10,23): (1,9,23) -0.946706 (1,10,22) 81.5011 (1,10,24) -83.6095 (1,11,23) 0.434803 (2,10,23) -7.37964
(1,10,24): (1,9,24) -0.654100 (1,10,23) 83.6095 (1,10,25) -85.2071 (1,11,24) 0.313181 (2,10,24) -8.06148
(1,10,25): (1,9,25) -0.453422 (1,10,24) 85.2071 (1,10,26) -86.0658 (1,11,25) 0.226350 (2,10,25) -8.91423
(1,10,26): (1,9,26) -0.310023 (1,10,25) 86.0658 (1,10,27) -85.9358 (1,11,26) 0.160788 (2,10,26) -9.98075
(1,10,27): (1,9,27) -0.203805 (1,10,26) 85.9358 (1,10,28) -84.6163 (1,11,27) 0.109168 (2,10,27) -11.2248
(1,10,28): (1,9,28) -0.122610 (1,10,27) 84.6163 (1,10,29) -82.7965 (1,11,28) 6.732538E-02 (2,10,28) -11.7645
(1,10,29): (1,9,29) -5.846531E-02 (1,10,28) 82.7965 (1,10,30) -90.6672 (1,11,29) 3.262811E-02 (2,10,29) -2.10344
(1,10,30): (1,9,30) 0.00000 (1,10,29) 90.6672 (1,11,30) 0.00000 (2,10,30) 137.078
(1,11,1): (1,10,1) 0.00000 (1,11,2) 49.7998 (1,12,1) 0.00000 (2,11,1) 28.4632
(1,11,2): (1,10,2) -3.905010E-02 (1,11,1) -49.7998 (1,11,3) 39.4386 (1,12,2) 1.008829E-02 (2,11,2) 0.390188
(1,11,3): (1,10,3) -7.671018E-02 (1,11,2) -39.4386 (1,11,4) 33.2545 (1,12,3) 1.773187E-02 (2,11,3) -3.75700
(1,11,4): (1,10,4) -0.117573 (1,11,3) -33.2545 (1,11,5) 27.6922 (1,12,4) 2.198662E-02 (2,11,4) -4.34203
(1,11,5): (1,10,5) -0.164249 (1,11,4) -27.6922 (1,11,6) 22.2117 (1,12,5) 2.064869E-02 (2,11,5) -4.37592
(1,11,6): (1,10,6) -0.219887 (1,11,5) -22.2117 (1,11,7) 16.7537 (1,12,6) 1.036004E-02 (2,11,6) -4.33252
(1,11,7): (1,10,7) -0.289243 (1,11,6) -16.7537 (1,11,8) 11.3466 (1,12,7) -1.407915E-02 (2,11,7) -4.28957
(1,11,8): (1,10,8) -0.380201 (1,11,7) -11.3466 (1,11,9) 6.04751 (1,12,8) -6.118003E-02 (2,11,8) -4.25950
(1,11,9): (1,10,9) -0.506900 (1,11,8) -6.04751 (1,11,10) 0.943744 (1,12,9) -0.145888 (2,11,9) -4.24346
(1,11,10): (1,10,10) -0.697129 (1,11,9) -0.943744 (1,11,11) -3.82223 (1,12,10) -0.296946 (2,11,10) -4.23998
(1,11,11): (1,10,11) -1.01200 (1,11,10) 3.82223 (1,11,12) -7.98993 (1,12,11) -0.576528 (2,11,11) -4.24379
(1,11,12): (1,10,12) -1.60542 (1,11,11) 7.98993 (1,11,13) -11.0169 (1,12,12) -1.13967 (2,11,12) -4.22799
(1,11,13): (1,10,13) -2.92445 (1,11,12) 11.0169 (1,11,14) -11.6510 (1,12,13) -2.43452 (2,11,13) -4.00694
(1,11,14): (1,10,14) -6.41728 (1,11,13) 11.6510 (1,11,15) -7.23130 (1,12,14) -5.91024 (2,11,14) -2.09215
(1,11,15): (1,10,15) -16.7631 (1,11,14) 7.23130 (1,11,16) 1.16896 (1,12,15) -16.2468 (2,11,15) 14.6097
(1,11,16): (1,10,16) -43.5330 (1,11,15) -1.16896 (1,11,17) -91.4118 (1,12,16) -43.0165 (2,11,16) 169.130
(1,11,17): (1,10,17) -16.5919 (1,11,16) 91.4118 (1,11,18) -82.0449 (1,12,17) -16.0856 (2,11,17) 13.3107
(1,11,18): (1,10,18) -6.25254 (1,11,17) 82.0449 (1,11,19) -76.5306 (1,12,18) -5.76525 (2,11,18) -3.49644
(1,11,19): (1,10,19) -2.79414 (1,11,18) 76.5306 (1,11,20) -75.8601 (1,12,19) -2.33346 (2,11,19) -5.54289
(1,11,20): (1,10,20) -1.50041 (1,11,19) 75.8601 (1,11,21) -77.2642 (1,12,20) -1.07280 (2,11,20) -6.02269
(1,11,21): (1,10,21) -0.922865 (1,11,20) 77.2642 (1,11,22) -79.4117 (1,12,21) -0.533616 (2,11,21) -6.39597
(1,11,22): (1,10,22) -0.618138 (1,11,21) 79.4117 (1,11,23) -81.6841 (1,12,22) -0.271275 (2,11,22) -6.83821
(1,11,23): (1,10,23) -0.434803 (1,11,22) 81.6841 (1,11,24) -83.7309 (1,12,23) -0.133063 (2,11,23) -7.38535
(1,11,24): (1,10,24) -0.313181 (1,11,23) 83.7309 (1,11,25) -85.2937 (1,12,24) -5.805105E-02 (2,11,24) -8.06595
(1,11,25): (1,10,25) -0.226350 (1,11,24) 85.2937 (1,11,26) -86.1311 (1,12,25) -1.816196E-02 (2,11,25) -8.91807
(1,11,26): (1,10,26) -0.160788 (1,11,25) 86.1311 (1,11,27) -85.9871 (1,12,26) 1.201760E-03 (2,11,26) -9.98437
(1,11,27): (1,10,27) -0.109168 (1,11,26) 85.9871 (1,11,28) -84.6578 (1,12,27) 8.399584E-03 (2,11,27) -11.2285
(1,11,28): (1,10,28) -6.732538E-02 (1,11,27) 84.6578 (1,11,29) -82.8307 (1,12,28) 8.610253E-03 (2,11,28) -11.7683
(1,11,29): (1,10,29) -3.262811E-02 (1,11,28) 82.8307 (1,11,30) -90.6983 (1,12,29) 5.225546E-03 (2,11,29) -2.10502
(1,11,30): (1,10,30) 0.00000 (1,11,29) 90.6983 (1,12,30) 0.00000 (2,11,30) 137.120
(1,12,1): (1,11,1) 0.00000 (1,12,2) 49.8099 (1,13,1) 0.00000 (2,12,1) 28.4693
(1,12,2): (1,11,2) -1.008829E-02 (1,12,1) -49.8099 (1,12,3) 39.4462 (1,13,2) -1.730888E-02 (2,12,2) 0.391065
(1,12,3): (1,11,3) -1.773187E-02 (1,12,2) -39.4462 (1,12,4) 33.2588 (1,13,3) -3.796723E-02 (2,12,3) -3.75690
(1,12,4): (1,11,4) -2.198662E-02 (1,12,3) -33.2588 (1,12,5) 27.6908 (1,13,4) -6.803783E-02 (2,12,4) -4.34200
(1,12,5): (1,11,5) -2.064869E-02 (1,12,4) -27.6908 (1,12,6) 22.2014 (1,13,5) -0.114064 (2,12,5) -4.37586
(1,12,6): (1,11,6) -1.036004E-02 (1,12,5) -22.2014 (1,12,7) 16.7293 (1,13,6) -0.185119 (2,12,6) -4.33242
(1,12,7): (1,11,7) 1.407915E-02 (1,12,6) -16.7293 (1,12,8) 11.2995 (1,13,7) -0.294859 (2,12,7) -4.28945
(1,12,8): (1,11,8) 6.118003E-02 (1,12,7) -11.2995 (1,12,9) 5.96280 (1,13,8) -0.465025 (2,12,8) -4.25943
(1,12,9): (1,11,9) 0.145888 (1,12,8) -5.96280 (1,12,10) 0.792687 (1,13,9) -0.732185 (2,12,9) -4.24360
(1,12,10): (1,11,10) 0.296946 (1,12,9) -0.792687 (1,12,11) -4.10181 (1,13,10) -1.16164 (2,12,10) -4.24083
(1,12,11): (1,11,11) 0.576528 (1,12,10) 4.10181 (1,12,12) -8.55307 (1,13,11) -1.87760 (2,12,11) -4.24769
(1,12,12): (1,11,12) 1.13967 (1,12,11) 8.55307 (1,12,13) -12.3117 (1,13,12) -3.13065 (2,12,12) -4.25042
(1,12,13): (1,11,13) 2.43452 (1,12,12) 12.3117 (1,12,14) -15.1266 (1,13,13) -5.44350 (2,12,13) -4.17613
(1,12,14): (1,11,14) 5.91024 (1,12,13) 15.1266 (1,12,15) -17.5679 (1,13,14) -9.86287 (2,12,14) -3.60613
(1,12,15): (1,11,15) 16.2468 (1,12,14) 17.5679 (1,12,16) -25.6030 (1,13,15) -17.9276 (2,12,15) -0.284081
(1,12,16): (1,11,16) 43.0165 (1,12,15) 25.6030 (1,12,17) -64.4974 (1,13,16) -28.1528 (2,12,16) 14.0307
(1,12,17): (1,11,17) 16.0856 (1,12,16) 64.4974 (1,12,18) -71.7326 (1,13,17) -17.7022 (2,12,17) -1.14811
(1,12,18): (1,11,18) 5.76525 (1,12,17) 71.7326 (1,12,19) -73.1018 (1,13,18) -9.58872 (2,12,18) -4.80735
(1,12,19): (1,11,19) 2.33346 (1,12,18) 73.1018 (1,12,20) -74.6007 (1,13,19) -5.20046 (2,12,19) -5.63404
(1,12,20): (1,11,20) 1.07280 (1,12,19) 74.6007 (1,12,21) -76.7257 (1,13,20) -2.93495 (2,12,20) -6.01286
(1,12,21): (1,11,21) 0.533616 (1,12,20) 76.7257 (1,12,22) -79.1498 (1,13,21) -1.72505 (2,12,21) -6.38444
(1,12,22): (1,11,22) 0.271275 (1,12,21) 79.1498 (1,12,23) -81.5462 (1,13,22) -1.04428 (2,12,22) -6.83062
(1,12,23): (1,11,23) 0.133063 (1,12,22) 81.5462 (1,12,24) -83.6561 (1,13,23) -0.642719 (2,12,23) -7.38044
(1,12,24): (1,11,24) 5.805105E-02 (1,12,23) 83.6561 (1,12,25) -85.2539 (1,13,24) -0.397445 (2,12,24) -8.06273
(1,12,25): (1,11,25) 1.816196E-02 (1,12,24) 85.2539 (1,12,26) -86.1118 (1,13,25) -0.244281 (2,12,25) -8.91599
(1,12,26): (1,11,26) -1.201760E-03 (1,12,25) 86.1118 (1,12,27) -85.9800 (1,13,26) -0.147494 (2,12,26) -9.98314
(1,12,27): (1,11,27) -8.399584E-03 (1,12,26) 85.9800 (1,12,28) -84.6576 (1,13,27) -8.597087E-02 (2,12,27) -11.2280
(1,12,28): (1,11,28) -8.610253E-03 (1,12,27) 84.6576 (1,12,29) -82.8341 (1,13,28) -4.656483E-02 (2,12,28) -11.7684
(1,12,29): (1,11,29) -5.225546E-03 (1,12,28) 82.8341 (1,12,30) -90.7033 (1,13,29) -2.057799E-02 (2,12,29) -2.10500
(1,12,30): (1,11,30) 0.00000 (1,12,29) 90.7033 (1,13,30) 0.00000 (2,12,30) 137.128
(1,13,1): (1,12,1) 0.00000 (1,13,2) 49.7926 (1,14,1) 0.00000 (2,13,1) 28.4600
(1,13,2): (1,12,2) 1.730888E-02 (1,13,1) -49.7926 (1,13,3) 39.4255 (1,14,2) -4.019760E-02 (2,13,2) 0.389907
(1,13,3): (1,12,3) 3.796723E-02 (1,13,2) -39.4255 (1,13,4) 33.2287 (1,14,3) -8.429698E-02 (2,13,3) -3.75685
(1,13,4): (1,12,4) 6.803783E-02 (1,13,3) -33.2287 (1,13,5) 27.6448 (1,14,4) -0.142367 (2,13,4) -4.34174
(1,13,5): (1,12,5) 0.114064 (1,13,4) -27.6448 (1,13,6) 22.1303 (1,14,5) -0.224072 (2,13,5) -4.37553
(1,13,6): (1,12,6) 0.185119 (1,13,5) -22.1303 (1,13,7) 16.6196 (1,14,6) -0.342241 (2,13,6) -4.33209
(1,13,7): (1,12,7) 0.294859 (1,13,6) -16.6196 (1,13,8) 11.1294 (1,14,7) -0.515460 (2,13,7) -4.28920
(1,13,8): (1,12,8) 0.465025 (1,13,7) -11.1294 (1,13,9) 5.69564 (1,14,8) -0.771860 (2,13,8) -4.25945
(1,13,9): (1,12,9) 0.732185 (1,13,8) -5.69564 (1,13,10) 0.363235 (1,14,9) -1.15551 (2,13,9) -4.24428
(1,13,10): (1,12,10) 1.16164 (1,13,9) -0.363235 (1,13,11) -4.81777 (1,14,10) -1.73750 (2,13,10) -4.24315
(1,13,11): (1,12,11) 1.87760 (1,13,10) 4.81777 (1,13,12) -9.80610 (1,14,11) -2.63459 (2,13,11) -4.25471
(1,13,12): (1,12,12) 3.13065 (1,13,11) 9.80610 (1,13,13) -14.6245 (1,14,12) -4.03719 (2,13,12) -4.27509
(1,13,13): (1,12,13) 5.44350 (1,13,12) 14.6245 (1,13,14) -19.5459 (1,14,13) -6.23418 (2,13,13) -4.28798
(1,13,14): (1,12,14) 9.86287 (1,13,13) 19.5459 (1,13,15) -25.6323 (1,14,14) -9.55568 (2,13,14) -4.22077
(1,13,15): (1,12,15) 17.9276 (1,13,14) 25.6323 (1,13,16) -35.8277 (1,14,15) -13.9270 (2,13,15) -3.80514
(1,13,16): (1,12,16) 28.1528 (1,13,15) 35.8277 (1,13,17) -54.0505 (1,14,16) -17.2981 (2,13,16) -2.63190
(1,13,17): (1,12,17) 17.7022 (1,13,16) 54.0505 (1,13,18) -63.6239 (1,14,17) -13.7305 (2,13,17) -4.39821
(1,13,18): (1,12,18) 9.58872 (1,13,17) 63.6239 (1,13,19) -68.7168 (1,14,18) -9.27302 (2,13,18) -5.22279
(1,13,19): (1,12,19) 5.20046 (1,13,18) 68.7168 (1,13,20) -72.3373 (1,14,19) -5.94601 (2,13,19) -5.63394
(1,13,20): (1,12,20) 2.93495 (1,13,19) 72.3373 (1,13,21) -75.5171 (1,14,20) -3.77905 (2,13,20) -5.97603
(1,13,21): (1,12,21) 1.72505 (1,13,20) 75.5171 (1,13,22) -78.4700 (1,14,21) -2.41628 (2,13,21) -6.35592
(1,13,22): (1,12,22) 1.04428 (1,13,21) 78.4700 (1,13,23) -81.1453 (1,14,22) -1.55795 (2,13,22) -6.81099
(1,13,23): (1,12,23) 0.642719 (1,13,22) 81.1453 (1,13,24) -83.4114 (1,14,23) -1.00996 (2,13,23) -7.36670
(1,13,24): (1,12,24) 0.397445 (1,13,23) 83.4114 (1,13,25) -85.1012 (1,14,24) -0.654753 (2,13,24) -8.05279
(1,13,25): (1,12,25) 0.244281 (1,13,24) 85.1012 (1,13,26) -86.0155 (1,14,25) -0.421486 (2,13,25) -8.90859
(1,13,26): (1,12,26) 0.147494 (1,13,25) 86.0155 (1,13,27) -85.9188 (1,14,26) -0.266637 (2,13,26) -9.97747
(1,13,27): (1,12,27) 8.597087E-02 (1,13,26) 85.9188 (1,13,28) -84.6185 (1,14,27) -0.162726 (2,13,27) -11.2235
(1,13,28): (1,12,28) 4.656483E-02 (1,13,27) 84.6185 (1,13,29) -82.8084 (1,14,28) -9.188415E-02 (2,13,28) -11.7648
(1,13,29): (1,12,29) 2.057799E-02 (1,13,28) 82.8084 (1,13,30) -90.6837 (1,14,29) -4.189503E-02 (2,13,29) -2.10347
(1,13,30): (1,12,30) 0.00000 (1,13,29) 90.6837 (1,14,30) 0.00000 (2,13,30) 137.103
(1,14,1): (1,13,1) 0.00000 (1,14,2) 49.7524 (1,15,1) 0.00000 (2,14,1) 28.4376
(1,14,2): (1,13,2) 4.019760E-02 (1,14,1) -49.7524 (1,14,3) 39.3815 (1,15,2) -5.631375E-02 (2,14,2) 0.387042
(1,14,3): (1,13,3) 8.429698E-02 (1,14,2) -39.3815 (1,14,4) 33.1707 (1,15,3) -0.116639 (2,14,3) -3.75687
(1,14,4): (1,13,4) 0.142367 (1,14,3) -33.1707 (1,14,5) 27.5631 (1,15,4) -0.193508 (2,14,4) -4.34129
(1,14,5): (1,13,5) 0.224072 (1,14,4) -27.5631 (1,14,6) 22.0122 (1,15,5) -0.298142 (2,14,5) -4.37501
(1,14,6): (1,13,6) 0.342241 (1,14,5) -22.0122 (1,14,7) 16.4463 (1,15,6) -0.444806 (2,14,6) -4.33159
(1,14,7): (1,13,7) 0.515460 (1,14,6) -16.4463 (1,14,8) 10.8730 (1,15,7) -0.653206 (2,14,7) -4.28887
(1,14,8): (1,13,8) 0.771860 (1,14,7) -10.8730 (1,14,9) 5.31199 (1,15,8) -0.951342 (2,14,8) -4.25955
(1,14,9): (1,13,9) 1.15551 (1,14,8) -5.31199 (1,14,10) -0.218750 (1,15,9) -1.37947 (2,14,9) -4.24531
(1,14,10): (1,13,10) 1.73750 (1,14,9) 0.218750 (1,14,11) -5.71486 (1,15,10) -1.99526 (2,14,10) -4.24615
(1,14,11): (1,13,11) 2.63459 (1,14,10) 5.71486 (1,14,12) -11.2087 (1,15,11) -2.87874 (2,14,11) -4.26204
(1,14,12): (1,13,12) 4.03719 (1,14,11) 11.2087 (1,14,13) -16.8214 (1,15,12) -4.13115 (2,14,12) -4.29331
(1,14,13): (1,13,13) 6.23418 (1,14,12) 16.8214 (1,14,14) -22.8672 (1,15,13) -5.84848 (2,14,13) -4.33994
(1,14,14): (1,13,14) 9.55568 (1,14,13) 22.8672 (1,14,15) -30.0033 (1,15,14) -8.02152 (2,14,14) -4.39808
(1,14,15): (1,13,15) 13.9270 (1,14,14) 30.0033 (1,14,16) -39.1983 (1,15,15) -10.2794 (2,14,15) -4.45265
(1,14,16): (1,13,16) 17.2981 (1,14,15) 39.1983 (1,14,17) -50.4839 (1,15,16) -11.4973 (2,14,16) -4.51513
(1,14,17): (1,13,17) 13.7305 (1,14,16) 50.4839 (1,14,18) -59.1686 (1,15,17) -10.1251 (2,14,17) -4.92087
(1,14,18): (1,13,18) 9.27302 (1,14,17) 59.1686 (1,14,19) -65.3920 (1,15,18) -7.77508 (2,14,18) -5.27446
(1,14,19): (1,13,19) 5.94601 (1,14,18) 65.3920 (1,14,20) -70.1722 (1,15,19) -5.57175 (2,14,19) -5.59408
(1,14,20): (1,13,20) 3.77905 (1,14,19) 70.1722 (1,14,21) -74.1558 (1,15,20) -3.86281 (2,14,20) -5.93255
(1,14,21): (1,13,21) 2.41628 (1,14,20) 74.1558 (1,14,22) -77.6128 (1,15,21) -2.63721 (2,14,21) -6.32207
(1,14,22): (1,13,22) 1.55795 (1,14,21) 77.6128 (1,14,23) -80.5983 (1,15,22) -1.78657 (2,14,22) -6.78588
(1,14,23): (1,13,23) 1.00996 (1,14,22) 80.5983 (1,14,24) -83.0570 (1,15,23) -1.20331 (2,14,23) -7.34795
(1,14,24): (1,13,24) 0.654753 (1,14,23) 83.0570 (1,14,25) -84.8687 (1,15,24) -0.804526 (2,14,24) -8.03849
(1,14,25): (1,13,25) 0.421486 (1,14,24) 84.8687 (1,14,26) -85.8612 (1,15,25) -0.531520 (2,14,25) -8.89742
(1,14,26): (1,13,26) 0.266637 (1,14,25) 85.8612 (1,14,27) -85.8155 (1,15,26) -0.343888 (2,14,26) -9.96847
(1,14,27): (1,13,27) 0.162726 (1,14,26) 85.8155 (1,14,28) -84.5483 (1,15,27) -0.213968 (2,14,27) -11.2159
(1,14,28): (1,13,28) 9.188415E-02 (1,14,27) 84.5483 (1,14,29) -82.7592 (1,15,28) -0.122726 (2,14,28) -11.7583
(1,14,29): (1,13,29) 4.189503E-02 (1,14,28) 82.7592 (1,14,30) -90.6438 (1,15,29) -5.656714E-02 (2,14,29) -2.10073
(1,14,30): (1,13,30) 0.00000 (1,14,29) 90.6438 (1,15,30) 0.00000 (2,14,30) 137.051
(1,15,1): (1,14,1) 0.00000 (1,15,2) 49.6961 (1,16,1) 0.00000 (2,15,1) 28.4060
(1,15,2): (1,14,2) 5.631375E-02 (1,15,1) -49.6961 (1,15,3) 39.3211 (1,16,2) -6.433000E-02 (2,15,2) 0.382961
(1,15,3): (1,14,3) 0.116639 (1,15,2) -39.3211 (1,15,4) 33.0938 (1,16,3) -0.132372 (2,15,3) -3.75693
(1,15,4): (1,14,4) 0.193508 (1,15,3) -33.0938 (1,15,5) 27.4585 (1,16,4) -0.217447 (2,15,4) -4.34074
(1,15,5): (1,14,5) 0.298142 (1,15,4) -27.4585 (1,15,6) 21.8655 (1,16,5) -0.330828 (2,15,5) -4.37436
(1,15,6): (1,14,6) 0.444806 (1,15,5) -21.8655 (1,15,7) 16.2379 (1,16,6) -0.486214 (2,15,6) -4.33101
(1,15,7): (1,14,7) 0.653206 (1,15,6) -16.2379 (1,15,8) 10.5748 (1,16,7) -0.701560 (2,15,7) -4.28852
(1,15,8): (1,14,8) 0.951342 (1,15,7) -10.5748 (1,15,9) 4.88386 (1,16,8) -1.00066 (2,15,8) -4.25971
(1,15,9): (1,14,9) 1.37947 (1,15,8) -4.88386 (1,15,10) -0.834535 (1,16,9) -1.41458 (2,15,9) -4.24651
(1,15,10): (1,14,10) 1.99526 (1,15,9) 0.834535 (1,15,11) -6.59833 (1,16,10) -1.98220 (2,15,10) -4.24928
(1,15,11): (1,14,11) 2.87874 (1,15,10) 6.59833 (1,15,12) -12.4611 (1,16,11) -2.74731 (2,15,11) -4.26870
(1,15,12): (1,14,12) 4.13115 (1,15,11) 12.4611 (1,15,13) -18.5387 (1,16,12) -3.74707 (2,15,12) -4.30645
(1,15,13): (1,14,13) 5.84848 (1,15,12) 18.5387 (1,15,14) -25.0401 (1,16,13) -4.98128 (2,15,13) -4.36582
(1,15,14): (1,14,14) 8.02152 (1,15,13) 25.0401 (1,15,15) -32.2609 (1,16,14) -6.34849 (2,15,14) -4.45224
(1,15,15): (1,14,15) 10.2794 (1,15,14) 32.2609 (1,15,16) -40.4159 (1,16,15) -7.55125 (2,15,15) -4.57312
(1,15,16): (1,14,16) 11.4973 (1,15,15) 40.4159 (1,15,17) -49.1120 (1,16,16) -8.06067 (2,15,16) -4.74053
(1,15,17): (1,14,17) 10.1251 (1,15,16) 49.1120 (1,15,18) -56.8196 (1,16,17) -7.43385 (2,15,17) -4.98366
(1,15,18): (1,14,18) 7.77508 (1,15,17) 56.8196 (1,15,19) -63.1900 (1,16,18) -6.14869 (2,15,18) -5.25596
(1,15,19): (1,14,19) 5.57175 (1,15,18) 63.1900 (1,15,20) -68.4646 (1,16,19) -4.74165 (2,15,19) -5.55550
(1,15,20): (1,14,20) 3.86281 (1,15,19) 68.4646 (1,15,21) -72.9315 (1,16,20) -3.50077 (2,15,20) -5.89513
(1,15,21): (1,14,21) 2.63721 (1,15,20) 72.9315 (1,15,22) -76.7633 (1,16,21) -2.51461 (2,15,21) -6.29076
(1,15,22): (1,14,22) 1.78657 (1,15,21) 76.7633 (1,15,23) -80.0160 (1,16,22) -1.77308 (2,15,22) -6.76075
(1,15,23): (1,14,23) 1.20331 (1,15,22) 80.0160 (1,15,24) -82.6591 (1,16,23) -1.23231 (2,15,23) -7.32794
(1,15,24): (1,14,24) 0.804526 (1,15,23) 82.6591 (1,15,25) -84.5965 (1,16,24) -0.844648 (2,15,24) -8.02246
(1,15,25): (1,14,25) 0.531520 (1,15,24) 84.5965 (1,15,26) -85.6743 (1,16,25) -0.569284 (2,15,25) -8.88438
(1,15,26): (1,14,26) 0.343888 (1,15,25) 85.6743 (1,15,27) -85.6863 (1,16,26) -0.374336 (2,15,26) -9.95759
(1,15,27): (1,14,27) 0.213968 (1,15,26) 85.6863 (1,15,28) -84.4578 (1,16,27) -0.235960 (2,15,27) -11.2065
(1,15,28): (1,14,28) 0.122726 (1,15,27) 84.4578 (1,15,29) -82.6939 (1,16,28) -0.136684 (2,15,28) -11.7499
(1,15,29): (1,14,29) 5.656714E-02 (1,15,28) 82.6939 (1,15,30) -90.5899 (1,16,29) -6.341460E-02 (2,15,29) -2.09720
(1,15,30): (1,14,30) 0.00000 (1,15,29) 90.5899 (1,16,30) 0.00000 (2,15,30) 136.980
(1,16,1): (1,15,1) 0.00000 (1,16,2) 49.6318 (1,17,1) 0.00000 (2,16,1) 28.3698
(1,16,2): (1,15,2) 6.433000E-02 (1,16,1) -49.6318 (1,16,3) 39.2531 (1,17,2) -6.392427E-02 (2,16,2) 0.378258
(1,16,3): (1,15,3) 0.132372 (1,16,2) -39.2531 (1,16,4) 33.0087 (1,17,3) -0.130963 (2,16,3) -3.75704
(1,16,4): (1,15,4) 0.217447 (1,16,3) -33.0087 (1,16,5) 27.3451 (1,17,4) -0.213678 (2,16,4) -4.34014
(1,16,5): (1,15,5) 0.330828 (1,16,4) -27.3451 (1,16,6) 21.7101 (1,17,5) -0.322184 (2,16,5) -4.37368
(1,16,6): (1,15,6) 0.486214 (1,16,5) -21.7101 (1,16,7) 16.0226 (1,17,6) -0.468248 (2,16,6) -4.33042
(1,16,7): (1,15,7) 0.701560 (1,16,6) -16.0226 (1,16,8) 10.2757 (1,17,7) -0.666486 (2,16,7) -4.28820
(1,16,8): (1,15,8) 1.00066 (1,16,7) -10.2757 (1,16,9) 4.46994 (1,17,8) -0.934920 (2,16,8) -4.25993
(1,16,9): (1,15,9) 1.41458 (1,16,8) -4.46994 (1,16,10) -1.40215 (1,17,9) -1.29479 (2,16,9) -4.24772
(1,16,10): (1,15,10) 1.98220 (1,16,9) 1.40215 (1,16,11) -7.36344 (1,17,10) -1.76875 (2,16,10) -4.25220
(1,16,11): (1,15,11) 2.74731 (1,16,10) 7.36344 (1,16,12) -13.4608 (1,17,11) -2.37562 (2,16,11) -4.27434
(1,16,12): (1,15,12) 3.74707 (1,16,11) 13.4608 (1,16,13) -19.7729 (1,17,12) -3.11892 (2,16,12) -4.31612
(1,16,13): (1,15,13) 4.98128 (1,16,12) 19.7729 (1,16,14) -26.4072 (1,17,13) -3.96598 (2,16,13) -4.38097
(1,16,14): (1,15,14) 6.34849 (1,16,13) 26.4072 (1,16,15) -33.4635 (1,17,14) -4.81814 (2,16,14) -4.47406
(1,16,15): (1,15,15) 7.55125 (1,16,14) 33.4635 (1,16,16) -40.9252 (1,17,15) -5.48768 (2,16,15) -4.60186
(1,16,16): (1,15,16) 8.06067 (1,16,15) 40.9252 (1,16,17) -48.4853 (1,17,16) -5.72998 (2,16,16) -4.77052
(1,16,17): (1,15,17) 7.43385 (1,16,16) 48.4853 (1,16,18) -55.5349 (1,17,17) -5.40059 (2,16,17) -4.98371
(1,16,18): (1,15,18) 6.14869 (1,16,17) 55.5349 (1,16,19) -61.7837 (1,17,18) -4.66409 (2,16,18) -5.23577
(1,16,19): (1,15,19) 4.74165 (1,16,18) 61.7837 (1,16,20) -67.2247 (1,17,19) -3.77292 (2,16,19) -5.52782
(1,16,20): (1,15,20) 3.50077 (1,16,19) 67.2247 (1,16,21) -71.9463 (1,17,20) -2.91202 (2,16,20) -5.86706
(1,16,21): (1,15,21) 2.51461 (1,16,20) 71.9463 (1,16,22) -76.0227 (1,17,21) -2.17289 (2,16,21) -6.26527
(1,16,22): (1,15,22) 1.77308 (1,16,21) 76.0227 (1,16,23) -79.4762 (1,17,22) -1.58089 (2,16,22) -6.73874
(1,16,23): (1,15,23) 1.23231 (1,16,22) 79.4762 (1,16,24) -82.2722 (1,17,23) -1.12684 (2,16,23) -7.30936
(1,16,24): (1,15,24) 0.844648 (1,16,23) 82.2722 (1,16,25) -84.3219 (1,17,24) -0.788115 (2,16,24) -8.00689
(1,16,25): (1,15,25) 0.569284 (1,16,24) 84.3219 (1,16,26) -85.4801 (1,17,25) -0.539807 (2,16,25) -8.87125
(1,16,26): (1,15,26) 0.374336 (1,16,25) 85.4801 (1,16,27) -85.5486 (1,17,26) -0.359519 (2,16,26) -9.94628
(1,16,27): (1,15,27) 0.235960 (1,16,26) 85.5486 (1,16,28) -84.3593 (1,17,27) -0.228885 (2,16,27) -11.1964
(1,16,28): (1,15,28) 0.136684 (1,16,27) 84.3593 (1,16,29) -82.6217 (1,17,28) -0.133564 (2,16,28) -11.7407
(1,16,29): (1,15,29) 6.341460E-02 (1,16,28) 82.6217 (1,16,30) -90.5295 (1,17,29) -6.226278E-02 (2,16,29) -2.09336
(1,16,30): (1,15,30) 0.00000 (1,16,29) 90.5295 (1,17,30) 0.00000 (2,16,30) 136.901
(1,17,1): (1,16,1) 0.00000 (1,17,2) 49.5679 (1,18,1) 0.00000 (2,17,1) 28.3337
(1,17,2): (1,16,2) 6.392427E-02 (1,17,1) -49.5679 (1,17,3) 39.1861 (1,18,2) -5.569493E-02 (2,17,2) 0.373559
(1,17,3): (1,16,3) 0.130963 (1,17,2) -39.1861 (1,17,4) 32.9260 (1,18,3) -0.113748 (2,17,3) -3.75716
(1,17,4): (1,16,4) 0.213678 (1,17,3) -32.9260 (1,17,5) 27.2366 (1,18,4) -0.184681 (2,17,4) -4.33957
(1,17,5): (1,16,5) 0.322184 (1,17,4) -27.2366 (1,17,6) 21.5641 (1,18,5) -0.276618 (2,17,5) -4.37304
[...]
          93.4546         92.8628         92.2128         91.5013         90.7226         89.8684         88.9270         87.8806         86.7057         85.4415    
   9      95.1111         95.4295         95.7200         95.9551         96.1410         96.2844         96.3891         96.4575         96.4903         96.4875    
          96.4473         96.3658         96.2353         96.0447         95.7852         95.4748         95.2039         94.8788         94.4774         94.0048    
          93.4693         92.8751         92.2227         91.5089         90.7284         89.8728         88.9301         87.8827         86.7069         85.4418    
  10      95.1112         95.4300         95.7209         95.9564         96.1429         96.2869         96.3925         96.4620         96.4961         96.4947    
          96.4555         96.3726         96.2330         96.0123         95.6722         95.1990         95.0903         94.8468         94.4763         94.0131    
          93.4789         92.8836         92.2296         91.5143         90.7325         89.8759         88.9324         87.8843         86.7078         85.4420    
  11      95.1113         95.4302         95.7214         95.9571         96.1439         96.2882         96.3943         96.4642         96.4989         96.4980    
          96.4590         96.3746         96.2271         95.9721         95.4699         94.0532         94.8869         94.8062         94.4707         94.0156    
          93.4829         92.8875         92.2328         91.5170         90.7346         89.8775         88.9337         87.8851         86.7083         85.4421    
  12      95.1113         95.4303         95.7215         95.9573         96.1440         96.2883         96.3942         96.4639         96.4983         96.4972    
          96.4582         96.3754         96.2361         96.0155         95.6754         95.2023         95.0936         94.8501         94.4795         94.0161    
          93.4818         92.8864         92.2321         91.5166         90.7345         89.8775         88.9338         87.8852         86.7083         85.4421    
  13      95.1113         95.4302         95.7213         95.9568         96.1433         96.2872         96.3926         96.4614         96.4948         96.4924    
          96.4527         96.3716         96.2415         96.0511         95.7918         95.4815         95.2106         94.8854         94.4839         94.0110    
          93.4751         92.8806         92.2277         91.5135         90.7323         89.8761         88.9328         87.8846         86.7080         85.4421    
  14      95.1112         95.4299         95.7207         95.9560         96.1420         96.2852         96.3895         96.4571         96.4888         96.4844    
          96.4429         96.3614         96.2356         96.0597         95.8306         95.5547         95.2490         94.8928         94.4762         93.9989    
          93.4635         92.8710         92.2204         91.5081         90.7285         89.8734         88.9310         87.8835         86.7074         85.4419    
  15      95.1111         95.4296         95.7200         95.9547         96.1401         96.2825         96.3857         96.4517         96.4813         96.4744    
          96.4302         96.3466         96.2207         96.0490         95.8289         95.5607         95.2464         94.8806         94.4593         93.9819    
          93.4487         92.8593         92.2114         91.5015         90.7237         89.8700         88.9286         87.8819         86.7066         85.4417    
  16      95.1110         95.4291         95.7191         95.9534         96.1381         96.2795         96.3815         96.4459         96.4733         96.4638    
          96.4166         96.3300         96.2020         96.0298         95.8110         95.5440         95.2277         94.8598         94.4386         93.9633    
          93.4332         92.8469         92.2019         91.4944         90.7185         89.8662         88.9260         87.8802         86.7056         85.4415    
  17      95.1109         95.4287         95.7183         95.9520         96.1361         96.2767         96.3775         96.4403         96.4659         96.4540    
          96.4039         96.3145         96.1837         96.0096         95.7898         95.5224         95.2058         94.8383         94.4187         93.9459    
          93.4188         92.8354         92.1931         91.4876         90.7135         89.8626         88.9234         87.8785         86.7047         85.4412    
  18      95.1108         95.4283         95.7176         95.9509         96.1344         96.2742         96.3741         96.4357         96.4596         96.4458    
          96.3935         96.3016         96.1686         95.9924         95.7713         95.5034         95.1868         94.8202         94.4023         93.9317    
          93.4070         92.8260         92.1857         91.4820         90.7093         89.8595         88.9212         87.8771         86.7039         85.4410    
  19      95.1107         95.4280         95.7170         95.9500         96.1331         96.2725         96.3716         96.4324         96.4552         96.4401    
          96.3862         96.2927         96.1579         95.9804         95.7583         95.4898         95.1734         94.8076         94.3908         93.9218    
          93.3988         92.8193         92.1805         91.4780         90.7062         89.8572         88.9196         87.8760         86.7033         85.4409    
  20      95.1107         95.4279         95.7167         95.9496         96.1324         96.2715         96.3704         96.4306         96.4529         96.4371    
          96.3825         96.2881         96.1525         95.9743         95.7516         95.4829         95.1666         94.8011         94.3850         93.9168    
          93.3945         92.8159         92.1778         91.4759         90.7046         89.8561         88.9188         87.8754         86.7030         85.4408    
1
  HEAD IN LAYER   3 AT END OF TIME STEP   5 IN STRESS PERIOD    2
  ---------------------------------------------------------------------------

                1               2               3               4               5               6               7               8               9              10
               11              12              13              14              15              16              17              18              19              20
               21              22              23              24              25              26              27              28              29              30
 ................................................................................................................................................................................................................................................................................................................................................................................................................................................................................................
   1      95.1715         95.4284         95.7007         95.9297         96.1107         96.2477         96.3440         96.4012         96.4201         96.4006    
          96.3422         96.2441         96.1051         95.9240         95.6992         95.4292         95.1126         94.7477         94.3331         93.8670    
          93.3472         92.7711         92.1354         91.4356         90.6659         89.8182         88.8817         87.8449         86.7197         85.6872    
   2      95.1716         95.4286         95.7011         95.9303         96.1116         96.2489         96.3455         96.4031         96.4225         96.4036    
          96.3459         96.2485         96.1102         95.9296         95.7052         95.4354         95.1187         94.7536         94.3386         93.8718    
          93.3513         92.7746         92.1382         91.4379         90.6677         89.8196         88.8827         87.8456         86.7201         85.6873    
   3      95.1718         95.4291         95.7018         95.9314         96.1132         96.2511         96.3484         96.4069         96.4273         96.4096    
          96.3533         96.2572         96.1202         95.9408         95.7172         95.4478         95.1310         94.7653         94.3493         93.8813    
          93.3595         92.7814         92.1438         91.4424         90.6713         89.8223         88.8847         87.8470         86.7209         85.6876    
   4      95.1720         95.4296         95.7029         95.9331         96.1155         96.2542         96.3525         96.4123         96.4342         96.4183    
          96.3639         96.2700         96.1350         95.9572         95.7348         95.4659         95.1490         94.7826         94.3651         93.8953    
          93.3715         92.7914         92.1519         91.4489         90.6763         89.8262         88.8876         87.8489         86.7220         85.6881    
   5      95.1722         95.4303         95.7041         95.9350         96.1183         96.2581         96.3577         96.4190         96.4429         96.4292    
          96.3774         96.2861         96.1537         95.9779         95.7569         95.4886         95.1717         94.8044         94.3853         93.9131    
          93.3866         92.8039         92.1621         91.4569         90.6826         89.8310         88.8911         87.8513         86.7234         85.6886    
   6      95.1725         95.4311         95.7056         95.9372         96.1215         96.2624         96.3634         96.4266         96.4527         96.4417    
          96.3929         96.3046         96.1748         96.0009         95.7805         95.5126         95.1961         94.8287         94.4082         93.9336    
          93.4041         92.8183         92.1736         91.4660         90.6896         89.8363         88.8950         87.8539         86.7249         85.6892    
   7      95.1728         95.4319         95.7070         95.9395         96.1247         96.2668         96.3693         96.4344         96.4629         96.4547    
          96.4089         96.3235         96.1955         96.0215         95.7992         95.5297         95.2157         94.8509         94.4310         93.9547    
          93.4224         92.8333         92.1856         91.4754         90.6968         89.8417         88.8989         87.8566         86.7265         85.6898    
   8      95.1731         95.4326         95.7084         95.9416         96.1277         96.2709         96.3749         96.4418         96.4725         96.4670    
          96.4239         96.3402         96.2114         96.0319         95.7992         95.5213         95.2164         94.8629         94.4489         93.9737    
          93.4395         92.8476         92.1970         91.4843         90.7036         89.8468         88.9026         87.8591         86.7279         85.6904    
   9      95.1734         95.4332         95.7095         95.9433         96.1302         96.2743         96.3796         96.4480         96.4806         96.4772    
          96.4357         96.3519         96.2175         96.0213         95.7558         95.4434         95.1735         94.8535         94.4568         93.9873    
          93.4533         92.8596         92.2067         91.4918         90.7093         89.8511         88.9057         87.8612         86.7291         85.6908    
  10      95.1735         95.4337         95.7103         95.9446         96.1320         96.2769         96.3829         96.4524         96.4863         96.4841    
          96.4432         96.3572         96.2122         95.9832         95.6363         95.1923         95.0537         94.8158         94.4526         93.9940    
          93.4622         92.8678         92.2134         91.4971         90.7134         89.8542         88.9080         87.8627         86.7300         85.6912    
  11      95.1736         95.4340         95.7108         95.9454         96.1330         96.2782         96.3846         96.4546         96.4890         96.4873    
          96.4464         96.3585         96.2049         95.9414         95.4633         94.6067         94.8802         94.7739         94.4456         93.9959    
          93.4660         92.8714         92.2165         91.4997         90.7155         89.8558         88.9092         87.8636         86.7305         85.6914    
  12      95.1737         95.4341         95.7110         95.9455         96.1332         96.2783         96.3846         96.4544         96.4885         96.4866    
          96.4459         96.3601         96.2152         95.9863         95.6395         95.1956         95.0571         94.8191         94.4558         93.9971    
          93.4652         92.8705         92.2159         91.4993         90.7154         89.8559         88.9093         87.8637         86.7306         85.6914    
  13      95.1736         95.4339         95.7107         95.9451         96.1325         96.2772         96.3830         96.4519         96.4851         96.4821    
          96.4411         96.3576         96.2236         96.0277         95.7624         95.4501         95.1802         94.8601         94.4633         93.9935    
          93.4592         92.8651         92.2117         91.4963         90.7133         89.8544         88.9084         87.8631         86.7303         85.6913    
  14      95.1735         95.4337         95.7102         95.9442         96.1311         96.2752         96.3800         96.4477         96.4792         96.4744    
          96.4320         96.3490         96.2207         96.0416         95.8092         95.5315         95.2266         94.8730         94.4588         93.9831    
          93.4484         92.8559         92.2046         91.4910         90.7095         89.8518         88.9066         87.8620         86.7296         85.6910    
  15      95.1734         95.4333         95.7094         95.9430         96.1293         96.2725         96.3762         96.4423         96.4719         96.4648    
          96.4199         96.3354         96.2081         96.0347         95.8128         95.5436         95.2295         94.8646         94.4443         93.9675    
          93.4344         92.8445         92.1958         91.4845         90.7048         89.8484         88.9042         87.8605         86.7288         85.6907    
  16      95.1732         95.4328         95.7086         95.9416         96.1273         96.2695         96.3720         96.4366         96.4641         96.4544    
          96.4068         96.3197         96.1909         96.0177         95.7980         95.5303         95.2139         94.8462         94.4252         93.9498    
          93.4194         92.8324         92.1865         91.4775         90.6996         89.8447         88.9016         87.8587         86.7278         85.6904    
  17      95.1730         95.4324         95.7077         95.9403         96.1253         96.2667         96.3680         96.4311         96.4567         96.4447    
          96.3945         96.3047         96.1735         95.9988         95.7784         95.5106         95.1937         94.8260         94.4062         93.9331    
          93.4053         92.8212         92.1777         91.4708         90.6946         89.8411         88.8991         87.8571         86.7269         85.6900    
  18      95.1729         95.4320         95.7070         95.9391         96.1236         96.2643         96.3646         96.4265         96.4505         96.4367    
          96.3843         96.2922         96.1588         95.9823         95.7608         95.4925         95.1756         94.8087         94.3903         93.9192    
          93.3938         92.8119         92.1704         91.4652         90.6904         89.8380         88.8969         87.8556         86.7261         85.6897    
  19      95.1728         95.4317         95.7065         95.9383         96.1223         96.2625         96.3622         96.4231         96.4461         96.4309    
          96.3770         96.2833         96.1484         95.9706         95.7482         95.4794         95.1626         94.7963         94.3791         93.9095    
          93.3857         92.8053         92.1652         91.4612         90.6874         89.8357         88.8953         87.8546         86.7255         85.6894    
  20      95.1727         95.4315         95.7062         95.9378         96.1216         96.2616         96.3609         96.4214         96.4438         96.4280    
          96.3733         96.2788         96.1431         95.9646         95.7417         95.4726         95.1559         94.7900         94.3734         93.9045    
          93.3815         92.8019         92.1626         91.4591         90.6858         89.8346         88.8945         87.8540         86.7251         85.6893    

 HEAD WILL BE SAVED ON UNIT 1017 AT END OF TIME STEP    5, STRESS PERIOD    2


  VOLUME BUDGET FOR ENTIRE MODEL AT END OF TIME STEP    5, STRESS PERIOD   2
  ---------------------------------------------------------------------------------------------------

     CUMULATIVE VOLUME      L**3       RATES FOR THIS TIME STEP      L**3/T          PACKAGE NAME    
     ------------------                 ------------------------                     ----------------

           IN:                                      IN:
           ---                                      ---
              STO-SS =          34.3971                STO-SS =           0.9168     STORAGE                          
              STO-SY =        4331.2226                STO-SY =         216.3760     STORAGE                          
                 WEL =         500.0000                   WEL =           0.0000     WEL_0                            
                 RCH =      173600.0000                   RCH =       16800.0000     RCH_0                            
                 CHD =           0.0000                   CHD =           0.0000     CHD_0                            

            TOTAL IN =      178465.6197              TOTAL IN =       17017.2927

          OUT:                                     OUT:
          ----                                     ----
              STO-SS =         517.6547                STO-SS =          49.3707     STORAGE                          
              STO-SY =       97045.5409                STO-SY =        9183.5407     STORAGE                          
                 WEL =        8000.0000                   WEL =         800.0000     WEL_0                            
                 RCH =           0.0000                   RCH =           0.0000     RCH_0                            
                 CHD =       72902.4294                   CHD =        6984.3815     CHD_0                            

           TOTAL OUT =      178465.6251             TOTAL OUT =       17017.2929

            IN - OUT =      -5.4218E-03              IN - OUT =      -1.4948E-04

 PERCENT DISCREPANCY =          -0.00     PERCENT DISCREPANCY =          -0.00




         TIME SUMMARY AT END OF TIME STEP    5 IN STRESS PERIOD    2
                    SECONDS     MINUTES      HOURS       DAYS        YEARS
                    -----------------------------------------------------------
   TIME STEP LENGTH 2.40753E+05  4012.6      66.876      2.7865     7.62901E-03
 STRESS PERIOD TIME 8.64000E+05  14400.      240.00      10.000     2.73785E-02
         TOTAL TIME 9.50400E+05  15840.      264.00      11.000     3.01164E-02


end timestep

