                                  MODFLOW-2005     
      U.S. GEOLOGICAL SURVEY MODULAR FINITE-DIFFERENCE GROUND-WATER FLOW MODEL
                            VERSION 1.12.00 2/3/2017

 LIST FILE: chd_demo.list
                         UNIT    2

 OPENING chd_demo.dis
 FILE TYPE:DIS   UNIT   11   STATUS:OLD    
 FORMAT:FORMATTED              ACCESS:SEQUENTIAL          

 OPENING chd_demo.bas
 FILE TYPE:BAS6   UNIT   13   STATUS:OLD    
 FORMAT:FORMATTED              ACCESS:SEQUENTIAL          

 OPENING chd_demo.lpf
 FILE TYPE:LPF   UNIT   15   STATUS:OLD    
 FORMAT:FORMATTED              ACCESS:SEQUENTIAL          

 OPENING chd_demo.chd
 FILE TYPE:CHD   UNIT   24   STATUS:OLD    
 FORMAT:FORMATTED              ACCESS:SEQUENTIAL          

 OPENING chd_demo.oc
 FILE TYPE:OC   UNIT   14   STATUS:OLD    
 FORMAT:FORMATTED              ACCESS:SEQUENTIAL          

 OPENING chd_demo.pcg
 FILE TYPE:PCG   UNIT   27   STATUS:OLD    
 FORMAT:FORMATTED              ACCESS:SEQUENTIAL          

 OPENING chd_demo.cbc
 FILE TYPE:DATA(BINARY)   UNIT   53   STATUS:REPLACE
 FORMAT:UNFORMATTED            ACCESS:STREAM              

 OPENING chd_demo.hds
 FILE TYPE:DATA(BINARY)   UNIT   51   STATUS:REPLACE
 FORMAT:UNFORMATTED            ACCESS:STREAM              

 BAS -- BASIC PACKAGE, VERSION 7, 5/2/2005 INPUT READ FROM UNIT   13
 
 MODFLOW was compiled using mixed precision
 Precision of REAL variables:           6
 Precision of DOUBLE PRECISION variables:          15

 DISCRETIZATION INPUT DATA READ FROM UNIT   11
 # DIS package for MODFLOW-2005 generated by Flopy 3.9.3
    1 LAYERS        15 ROWS        20 COLUMNS
    1 STRESS PERIOD(S) IN SIMULATION
 MODEL TIME UNIT IS DAYS
 MODEL LENGTH UNIT IS METERS
  Confining bed flag for each layer:
   0

                     DELR =   250.000    

                     DELC =   250.000    

 TOP ELEVATION OF LAYER 1 =   100.000    

   MODEL LAYER BOTTOM EL. =   0.00000     FOR LAYER   1


 STRESS PERIOD     LENGTH       TIME STEPS     MULTIPLIER FOR DELT    SS FLAG
 ----------------------------------------------------------------------------
        1         1.000000          1                    1.000         SS

 STEADY-STATE SIMULATION



 
 # BAS6 package for MODFLOW-2005 generated by Flopy 3.9.3                        
 THE FREE FORMAT OPTION HAS BEEN SELECTED



                     BOUNDARY ARRAY FOR LAYER   1
 READING ON UNIT   13 WITH FORMAT: (20I10)             

 AQUIFER HEAD WILL BE SET TO  -999.99     AT ALL NO-FLOW NODES (IBOUND=0).



                       INITIAL HEAD FOR LAYER   1
 READING ON UNIT   13 WITH FORMAT: (20E15.6)           
 # OC package for MODFLOW-2005 generated by Flopy 3.9.3

 OUTPUT CONTROL IS SPECIFIED ONLY AT TIME STEPS FOR WHICH OUTPUT IS DESIRED
 COMPACT CELL-BY-CELL BUDGET FILES WILL BE WRITTEN
 AUXILIARY DATA WILL BE SAVED IN CELL-BY-CELL BUDGET FILES
 HEAD PRINT FORMAT CODE IS   0    DRAWDOWN PRINT FORMAT CODE IS   0
 HEADS WILL BE SAVED ON UNIT   51    DRAWDOWNS WILL BE SAVED ON UNIT    0

 LPF -- LAYER-PROPERTY FLOW PACKAGE, VERSION 7, 5/2/2005
         INPUT READ FROM UNIT   15
 # LPF package for MODFLOW-2005 generated by Flopy 3.9.3
 CELL-BY-CELL FLOWS WILL BE SAVED ON UNIT   53
 HEAD AT CELLS THAT CONVERT TO DRY= -1.00000E+30
 No named parameters

   LAYER FLAGS:
 LAYER       LAYTYP        LAYAVG         CHANI        LAYVKA        LAYWET
 ---------------------------------------------------------------------------
    1             1             0     1.000E+00             0             0

   INTERPRETATION OF LAYER FLAGS:
                        INTERBLOCK     HORIZONTAL    DATA IN
         LAYER TYPE   TRANSMISSIVITY   ANISOTROPY   ARRAY VKA   WETTABILITY
 LAYER      (LAYTYP)      (LAYAVG)       (CHANI)      (LAYVKA)      (LAYWET)
 ---------------------------------------------------------------------------
    1   CONVERTIBLE      HARMONIC     1.000E+00    VERTICAL K  NON-WETTABLE

 WETTING CAPABILITY IS NOT ACTIVE IN ANY LAYER

    HYD. COND. ALONG ROWS =   15.0000     FOR LAYER   1

      VERTICAL HYD. COND. =   1.50000     FOR LAYER   1

 CHD -- TIME-VARIANT SPECIFIED-HEAD OPTION, VERSION 7, 5/2/2005
 INPUT READ FROM UNIT   24
 # CHD package for MODFLOW-2005 generated by Flopy 3.9.3
 No named parameters
 MAXIMUM OF     69 TIME-VARIANT SPECIFIED-HEAD CELLS AT ONE TIME


     0 TIME-VARIANT SPECIFIED-HEAD PARAMETERS

 PCG -- CONJUGATE-GRADIENT SOLUTION PACKAGE, VERSION 7, 5/2/2005
 # PCG package for MODFLOW-2005 generated by Flopy 3.9.3
 MAXIMUM OF    200 CALLS OF SOLUTION ROUTINE
 MAXIMUM OF    100 INTERNAL ITERATIONS PER CALL TO SOLUTION ROUTINE
 MATRIX PRECONDITIONING TYPE :    1



                                    SOLUTION BY THE CONJUGATE-GRADIENT METHOD
                                   -------------------------------------------
                    MAXIMUM NUMBER OF CALLS TO PCG ROUTINE =      200
                        MAXIMUM ITERATIONS PER CALL TO PCG =      100
                               MATRIX PRECONDITIONING TYPE =        1
        RELAXATION FACTOR (ONLY USED WITH PRECOND. TYPE 1) =    0.10000E+01
 PARAMETER OF POLYNOMIAL PRECOND. = 2 (2) OR IS CALCULATED :        0
                         HEAD CHANGE CRITERION FOR CLOSURE =    0.10000E-01
                     RESIDUAL CHANGE CRITERION FOR CLOSURE =    0.10000E+00
            PCG HEAD AND RESIDUAL CHANGE PRINTOUT INTERVAL =      999
     PRINTING FROM SOLVER IS LIMITED(1) OR SUPPRESSED (>1) =        3
                            STEADY-STATE DAMPING PARAMETER =    0.10000E+01
                               TRANSIENT DAMPING PARAMETER =    0.10000E+01
1
                            STRESS PERIOD NO.    1, LENGTH =   1.000000    
                            -----------------------------------------------

                              NUMBER OF TIME STEPS =     1

                               MULTIPLIER FOR DELT =     1.000

                            INITIAL TIME STEP SIZE =   1.000000    

 CHD NO.   LAYER   ROW   COL    START HEAD        END HEAD         
 ------------------------------------------------------------------
      1      1      1      1       95.00           95.00    
      2      1      2      1       95.00           95.00    
      3      1      3      1       95.00           95.00    
      4      1      4      1       95.00           95.00    
      5      1      5      1       95.00           95.00    
      6      1      6      1       95.00           95.00    
      7      1      7      1       95.00           95.00    
      8      1      8      1       95.00           95.00    
      9      1      9      1       95.00           95.00    
     10      1     10      1       95.00           95.00    
     11      1     11      1       95.00           95.00    
     12      1     12      1       95.00           95.00    
     13      1     13      1       95.00           95.00    
     14      1     14      1       95.00           95.00    
     15      1     15      1       95.00           95.00    
     16      1      1     20       75.00           75.00    
     17      1      2     20       75.00           75.00    
     18      1      3     20       75.00           75.00    
     19      1      4     20       75.00           75.00    
     20      1      5     20       75.00           75.00    
     21      1      6     20       75.00           75.00    
     22      1      7     20       75.00           75.00    
     23      1      8     20       75.00           75.00    
     24      1      9     20       75.00           75.00    
     25      1     10     20       75.00           75.00    
     26      1     11     20       75.00           75.00    
     27      1     12     20       75.00           75.00    
     28      1     13     20       75.00           75.00    
     29      1     14     20       75.00           75.00    
     30      1     15     20       75.00           75.00    
     31      1      1      2       88.00           88.00    
     32      1      1      3       88.00           88.00    
     33      1      1      4       88.00           88.00    
     34      1      1      5       88.00           88.00    
     35      1      1      6       88.00           88.00    
     36      1      1      7       88.00           88.00    
     37      1      1      8       88.00           88.00    
     38      1      1      9       88.00           88.00    
     39      1      1     10       88.00           88.00    
     40      1      1     11       88.00           88.00    
     41      1      1     12       88.00           88.00    
     42      1      1     13       88.00           88.00    
     43      1      1     14       88.00           88.00    
     44      1      1     15       88.00           88.00    
     45      1      1     16       88.00           88.00    
     46      1      1     17       88.00           88.00    
     47      1      1     18       88.00           88.00    
     48      1      1     19       88.00           88.00    
     49      1     15      2       82.00           82.00    
     50      1     15      3       82.00           82.00    
     51      1     15      4       82.00           82.00    
     52      1     15      5       82.00           82.00    
     53      1     15      6       82.00           82.00    
     54      1     15      7       82.00           82.00    
     55      1     15      8       82.00           82.00    
     56      1     15      9       82.00           82.00    
     57      1     15     10       82.00           82.00    
     58      1     15     11       82.00           82.00    
     59      1     15     12       82.00           82.00    
     60      1     15     13       82.00           82.00    
     61      1     15     14       82.00           82.00    
     62      1     15     15       82.00           82.00    
     63      1     15     16       82.00           82.00    
     64      1     15     17       82.00           82.00    
     65      1     15     18       82.00           82.00    
     66      1     15     19       82.00           82.00    
     67      1      8      6       90.00           90.00    
     68      1      8     11       85.00           85.00    
     69      1      8     16       80.00           80.00    


     69 TIME-VARIANT SPECIFIED-HEAD CELLS
 
 SOLVING FOR HEAD 

 OUTPUT CONTROL FOR STRESS PERIOD    1   TIME STEP    1
    SAVE HEAD FOR ALL LAYERS
    SAVE BUDGET
 UBDSV2 SAVING "   CONSTANT HEAD" ON UNIT  53 AT TIME STEP  1, STRESS PERIOD   1
 UBDSV1 SAVING "FLOW RIGHT FACE " ON UNIT  53 AT TIME STEP  1, STRESS PERIOD   1
 UBDSV1 SAVING "FLOW FRONT FACE " ON UNIT  53 AT TIME STEP  1, STRESS PERIOD   1

 HEAD WILL BE SAVED ON UNIT   51 AT END OF TIME STEP    1, STRESS PERIOD    1
1
  VOLUMETRIC BUDGET FOR ENTIRE MODEL AT END OF TIME STEP    1, STRESS PERIOD   1
  ------------------------------------------------------------------------------

     CUMULATIVE VOLUMES      L**3       RATES FOR THIS TIME STEP      L**3/T
     ------------------                 ------------------------

           IN:                                      IN:
           ---                                      ---
             STORAGE =           0.0000               STORAGE =           0.0000
       CONSTANT HEAD =       82477.5781         CONSTANT HEAD =       82477.5781

            TOTAL IN =       82477.5781              TOTAL IN =       82477.5781

          OUT:                                     OUT:
          ----                                     ----
             STORAGE =           0.0000               STORAGE =           0.0000
       CONSTANT HEAD =       82477.7812         CONSTANT HEAD =       82477.7812

           TOTAL OUT =       82477.7812             TOTAL OUT =       82477.7812

            IN - OUT =          -0.2031              IN - OUT =          -0.2031

 PERCENT DISCREPANCY =          -0.00     PERCENT DISCREPANCY =          -0.00






         TIME SUMMARY AT END OF TIME STEP    1 IN STRESS PERIOD    1
                    SECONDS     MINUTES      HOURS       DAYS        YEARS
                    -----------------------------------------------------------
   TIME STEP LENGTH  86400.      1440.0      24.000      1.0000     2.73785E-03
 STRESS PERIOD TIME  86400.      1440.0      24.000      1.0000     2.73785E-03
         TOTAL TIME  86400.      1440.0      24.000      1.0000     2.73785E-03
1

 Run end date and time (yyyy/mm/dd hh:mm:ss): 2025/08/08 17:46:38
 Elapsed run time:  0.002 Seconds

