                                  MODFLOW-2005     
      U.S. GEOLOGICAL SURVEY MODULAR FINITE-DIFFERENCE GROUND-WATER FLOW MODEL
                            VERSION 1.12.00 2/3/2017

 LIST FILE: obs_demo.list
                         UNIT    2

 OPENING obs_demo.dis
 FILE TYPE:DIS   UNIT   11   STATUS:OLD    
 FORMAT:FORMATTED              ACCESS:SEQUENTIAL          

 OPENING obs_demo.bas
 FILE TYPE:BAS6   UNIT   13   STATUS:OLD    
 FORMAT:FORMATTED              ACCESS:SEQUENTIAL          

 OPENING obs_demo.lpf
 FILE TYPE:LPF   UNIT   15   STATUS:OLD    
 FORMAT:FORMATTED              ACCESS:SEQUENTIAL          

 OPENING obs_demo.pcg
 FILE TYPE:PCG   UNIT   27   STATUS:OLD    
 FORMAT:FORMATTED              ACCESS:SEQUENTIAL          

 OPENING obs_demo.oc
 FILE TYPE:OC   UNIT   14   STATUS:OLD    
 FORMAT:FORMATTED              ACCESS:SEQUENTIAL          

 OPENING obs_demo.hob
 FILE TYPE:HOB   UNIT   39   STATUS:OLD    
 FORMAT:FORMATTED              ACCESS:SEQUENTIAL          

 OPENING obs_demo.drn
 FILE TYPE:DRN   UNIT   21   STATUS:OLD    
 FORMAT:FORMATTED              ACCESS:SEQUENTIAL          

 OPENING obs_demo.drob
 FILE TYPE:DROB   UNIT   42   STATUS:OLD    
 FORMAT:FORMATTED              ACCESS:SEQUENTIAL          

 OPENING obs_demo.obd
 FILE TYPE:DATA   UNIT  142   STATUS:UNKNOWN
 FORMAT:FORMATTED              ACCESS:SEQUENTIAL          

 OPENING obs_demo.hds
 FILE TYPE:DATA(BINARY)   UNIT   51   STATUS:REPLACE
 FORMAT:UNFORMATTED            ACCESS:STREAM              

 OPENING obs_demo.hob.out
 FILE TYPE:DATA   UNIT   90   STATUS:UNKNOWN
 FORMAT:FORMATTED              ACCESS:SEQUENTIAL          

 OPENING obs_demo.cbc
 FILE TYPE:DATA(BINARY)   UNIT   53   STATUS:REPLACE
 FORMAT:UNFORMATTED            ACCESS:STREAM              

 BAS -- BASIC PACKAGE, VERSION 7, 5/2/2005 INPUT READ FROM UNIT   13
 
 MODFLOW was compiled using mixed precision
 Precision of REAL variables:           6
 Precision of DOUBLE PRECISION variables:          15

 DISCRETIZATION INPUT DATA READ FROM UNIT   11
 # DIS package for MODFLOW-2005 generated by Flopy 3.9.3
    1 LAYERS        11 ROWS        11 COLUMNS
    2 STRESS PERIOD(S) IN SIMULATION
 MODEL TIME UNIT IS DAYS
 MODEL LENGTH UNIT IS METERS
  Confining bed flag for each layer:
   0

                     DELR =   100.000    

                     DELC =   100.000    

 TOP ELEVATION OF LAYER 1 =   50.0000    

   MODEL LAYER BOTTOM EL. =   0.00000     FOR LAYER   1


 STRESS PERIOD     LENGTH       TIME STEPS     MULTIPLIER FOR DELT    SS FLAG
 ----------------------------------------------------------------------------
        1         1.000000          1                    1.000         SS
        2         1.000000          1                    1.000         SS

 STEADY-STATE SIMULATION



 
 # BAS6 package for MODFLOW-2005 generated by Flopy 3.9.3                        
 THE FREE FORMAT OPTION HAS BEEN SELECTED



                     BOUNDARY ARRAY FOR LAYER   1
 READING ON UNIT   13 WITH FORMAT: (11I10)             

 AQUIFER HEAD WILL BE SET TO  -999.99     AT ALL NO-FLOW NODES (IBOUND=0).

             INITIAL HEAD =   10.0000     FOR LAYER   1
 # OC package for MODFLOW-2005 generated by Flopy 3.9.3

 OUTPUT CONTROL IS SPECIFIED ONLY AT TIME STEPS FOR WHICH OUTPUT IS DESIRED
 COMPACT CELL-BY-CELL BUDGET FILES WILL BE WRITTEN
 AUXILIARY DATA WILL BE SAVED IN CELL-BY-CELL BUDGET FILES
 HEAD PRINT FORMAT CODE IS   0    DRAWDOWN PRINT FORMAT CODE IS   0
 HEADS WILL BE SAVED ON UNIT   51    DRAWDOWNS WILL BE SAVED ON UNIT    0

 LPF -- LAYER-PROPERTY FLOW PACKAGE, VERSION 7, 5/2/2005
         INPUT READ FROM UNIT   15
 # LPF package for MODFLOW-2005 generated by Flopy 3.9.3
 HEAD AT CELLS THAT CONVERT TO DRY= -1.00000E+30
 No named parameters

   LAYER FLAGS:
 LAYER       LAYTYP        LAYAVG         CHANI        LAYVKA        LAYWET
 ---------------------------------------------------------------------------
    1             1             0     1.000E+00             0             0

   INTERPRETATION OF LAYER FLAGS:
                        INTERBLOCK     HORIZONTAL    DATA IN
         LAYER TYPE   TRANSMISSIVITY   ANISOTROPY   ARRAY VKA   WETTABILITY
 LAYER      (LAYTYP)      (LAYAVG)       (CHANI)      (LAYVKA)      (LAYWET)
 ---------------------------------------------------------------------------
    1   CONVERTIBLE      HARMONIC     1.000E+00    VERTICAL K  NON-WETTABLE

 WETTING CAPABILITY IS NOT ACTIVE IN ANY LAYER

    HYD. COND. ALONG ROWS =   10.0000     FOR LAYER   1

      VERTICAL HYD. COND. =   1.00000     FOR LAYER   1

 DRN -- DRAIN PACKAGE, VERSION 7, 5/2/2005 INPUT READ FROM UNIT   21
 # DRN package for MODFLOW-2005 generated by Flopy 3.9.3
 No named parameters
 MAXIMUM OF      2 ACTIVE DRAINS AT ONE TIME
 CELL-BY-CELL FLOWS WILL BE SAVED ON UNIT   53


     0 Drain parameters

 PCG -- CONJUGATE-GRADIENT SOLUTION PACKAGE, VERSION 7, 5/2/2005
 # PCG package for MODFLOW-2005 generated by Flopy 3.9.3
 MAXIMUM OF     50 CALLS OF SOLUTION ROUTINE
 MAXIMUM OF     30 INTERNAL ITERATIONS PER CALL TO SOLUTION ROUTINE
 MATRIX PRECONDITIONING TYPE :    1



                                    SOLUTION BY THE CONJUGATE-GRADIENT METHOD
                                   -------------------------------------------
                    MAXIMUM NUMBER OF CALLS TO PCG ROUTINE =       50
                        MAXIMUM ITERATIONS PER CALL TO PCG =       30
                               MATRIX PRECONDITIONING TYPE =        1
        RELAXATION FACTOR (ONLY USED WITH PRECOND. TYPE 1) =    0.10000E+01
 PARAMETER OF POLYNOMIAL PRECOND. = 2 (2) OR IS CALCULATED :        0
                         HEAD CHANGE CRITERION FOR CLOSURE =    0.10000E-04
                     RESIDUAL CHANGE CRITERION FOR CLOSURE =    0.10000E-04
            PCG HEAD AND RESIDUAL CHANGE PRINTOUT INTERVAL =      999
     PRINTING FROM SOLVER IS LIMITED(1) OR SUPPRESSED (>1) =        3
                            STEADY-STATE DAMPING PARAMETER =    0.10000E+01
                               TRANSIENT DAMPING PARAMETER =    0.10000E+01

 OBS2BAS7 -- HEAD OBSERVATIONS, VERSION 2.0, 2/28/2006
 INPUT READ FROM UNIT  39
 # HOB package for MODFLOW-2005 generated by Flopy 3.9.3
 NOPRINT option for HEAD OBSERVATIONS

 NUMBER OF HEADS....................................:    6
   NUMBER OF MULTILAYER HEADS.......................:    0
   MAXIMUM NUMBER OF LAYERS FOR MULTILAYER HEADS....:    0
 HEAD OBSERVATIONS WILL BE SAVED ON UNIT............:   90
 SIMULATED EQUIVALENT HEAD AT DRY CELLS WILL BE:   -9999.00    
 Observation within a steady-state time step has been moved to the end of the time step.
 Observation within a steady-state time step has been moved to the end of the time step.
 Observation within a steady-state time step has been moved to the end of the time step.

 OBS2DRN7 -- OBSERVATION PROCESS (DRAIN FLOW OBSERVATIONS)
 VERSION 2, 02/28/2006
 INPUT READ FROM UNIT   42
 # DROB for MODFLOW, generated by Flopy.

 NUMBER OF FLOW-OBSERVATION DRAIN-CELL GROUPS.....:      2
   NUMBER OF CELLS IN DRAIN-CELL GROUPS...........:      2
   NUMBER OF DRAIN-CELL FLOWS.....................:      2
 DRAIN OBSERVATIONS WILL BE SAVED ON UNIT.........:    142

 OBSERVED DRAIN-CELL FLOW DATA
 -- TIME OFFSETS ARE MULTIPLIED BY:   1.0000    

   GROUP NUMBER:      1   BOUNDARY TYPE: DRN   NUMBER OF CELLS IN GROUP:      1
   NUMBER OF FLOW OBSERVATIONS:      1

                                        OBSERVED
                    REFER.             DRAIN FLOW
       OBSERVATION  STRESS    TIME     GAIN (-) OR
  OBS#    NAME      PERIOD   OFFSET     LOSS (+)
     1 DRAIN_1          1    0.000      -250.0    
 Observation within a steady-state time step has been moved to the end of the time step.

       LAYER  ROW  COLUMN    FACTOR
          1.    6.     6.     1.00

   GROUP NUMBER:      2   BOUNDARY TYPE: DRN   NUMBER OF CELLS IN GROUP:      1
   NUMBER OF FLOW OBSERVATIONS:      1

                                        OBSERVED
                    REFER.             DRAIN FLOW
       OBSERVATION  STRESS    TIME     GAIN (-) OR
  OBS#    NAME      PERIOD   OFFSET     LOSS (+)
     2 DRAIN_2          1    0.000      -180.0    
 Observation within a steady-state time step has been moved to the end of the time step.

       LAYER  ROW  COLUMN    FACTOR
          1.    9.     9.     1.00
1
                            STRESS PERIOD NO.    1, LENGTH =   1.000000    
                            -----------------------------------------------

                              NUMBER OF TIME STEPS =     1

                               MULTIPLIER FOR DELT =     1.000

                            INITIAL TIME STEP SIZE =   1.000000    

 DRAIN NO.  LAYER   ROW   COL     DRAIN EL.  CONDUCTANCE         
 ----------------------------------------------------------------
      1      1      6      6       45.00           100.0    
      2      1      9      9       42.00           80.00    

      2 DRAINS
 
 SOLVING FOR HEAD 

 OUTPUT CONTROL FOR STRESS PERIOD    1   TIME STEP    1
    SAVE HEAD FOR ALL LAYERS
    SAVE BUDGET
 UBDSV4 SAVING "          DRAINS" ON UNIT  53 AT TIME STEP  1, STRESS PERIOD   1

 HEADS AT DRAIN CELLS ARE BELOW THE BOTTOM OF THE DRAIN BED AT THE CELLS LISTED
 BELOW.  THESE CONDITIONS DIMINISH THE IMPACT OF THE OBSERVATION ON ESTIMATES OF
 ALL PARAMETERS EXCEPT THOSE THAT CONTROL THE HYDRAULIC CONDUCTIVITY OF THE
 DRAIN BED.  (SEE TEXT FOR MORE INFORMATION).

 OBS#      1, ID DRAIN_1     , TIME STEP     1
    LAYER   ROW  COLUMN
      1      6      6
      1 OF THE      1 CELLS USED TO SIMULATE THE GAIN OR LOSS ARE
                      AFFECTED.

 OBS#      2, ID DRAIN_2     , TIME STEP     1
    LAYER   ROW  COLUMN
      1      9      9
      1 OF THE      1 CELLS USED TO SIMULATE THE GAIN OR LOSS ARE
                      AFFECTED.

 HEAD WILL BE SAVED ON UNIT   51 AT END OF TIME STEP    1, STRESS PERIOD    1
1
  VOLUMETRIC BUDGET FOR ENTIRE MODEL AT END OF TIME STEP    1, STRESS PERIOD   1
  ------------------------------------------------------------------------------

     CUMULATIVE VOLUMES      L**3       RATES FOR THIS TIME STEP      L**3/T
     ------------------                 ------------------------

           IN:                                      IN:
           ---                                      ---
             STORAGE =           0.0000               STORAGE =           0.0000
       CONSTANT HEAD =           0.0000         CONSTANT HEAD =           0.0000
              DRAINS =           0.0000                DRAINS =           0.0000

            TOTAL IN =           0.0000              TOTAL IN =           0.0000

          OUT:                                     OUT:
          ----                                     ----
             STORAGE =           0.0000               STORAGE =           0.0000
       CONSTANT HEAD =           0.0000         CONSTANT HEAD =           0.0000
              DRAINS =           0.0000                DRAINS =           0.0000

           TOTAL OUT =           0.0000             TOTAL OUT =           0.0000

            IN - OUT =           0.0000              IN - OUT =           0.0000

 PERCENT DISCREPANCY =           0.00     PERCENT DISCREPANCY =           0.00






         TIME SUMMARY AT END OF TIME STEP    1 IN STRESS PERIOD    1
                    SECONDS     MINUTES      HOURS       DAYS        YEARS
                    -----------------------------------------------------------
   TIME STEP LENGTH  86400.      1440.0      24.000      1.0000     2.73785E-03
 STRESS PERIOD TIME  86400.      1440.0      24.000      1.0000     2.73785E-03
         TOTAL TIME  86400.      1440.0      24.000      1.0000     2.73785E-03
1
1
                            STRESS PERIOD NO.    2, LENGTH =   1.000000    
                            -----------------------------------------------

                              NUMBER OF TIME STEPS =     1

                               MULTIPLIER FOR DELT =     1.000

                            INITIAL TIME STEP SIZE =   1.000000    

 DRAIN NO.  LAYER   ROW   COL     DRAIN EL.  CONDUCTANCE         
 ----------------------------------------------------------------
      1      1      6      6       44.00           100.0    
      2      1      9      9       41.00           80.00    

      2 DRAINS
 
 SOLVING FOR HEAD 

 NO OUTPUT CONTROL FOR STRESS PERIOD    2   TIME STEP    1
1
  VOLUMETRIC BUDGET FOR ENTIRE MODEL AT END OF TIME STEP    1, STRESS PERIOD   2
  ------------------------------------------------------------------------------

     CUMULATIVE VOLUMES      L**3       RATES FOR THIS TIME STEP      L**3/T
     ------------------                 ------------------------

           IN:                                      IN:
           ---                                      ---
             STORAGE =           0.0000               STORAGE =           0.0000
       CONSTANT HEAD =           0.0000         CONSTANT HEAD =           0.0000
              DRAINS =           0.0000                DRAINS =           0.0000

            TOTAL IN =           0.0000              TOTAL IN =           0.0000

          OUT:                                     OUT:
          ----                                     ----
             STORAGE =           0.0000               STORAGE =           0.0000
       CONSTANT HEAD =           0.0000         CONSTANT HEAD =           0.0000
              DRAINS =           0.0000                DRAINS =           0.0000

           TOTAL OUT =           0.0000             TOTAL OUT =           0.0000

            IN - OUT =           0.0000              IN - OUT =           0.0000

 PERCENT DISCREPANCY =           0.00     PERCENT DISCREPANCY =           0.00






         TIME SUMMARY AT END OF TIME STEP    1 IN STRESS PERIOD    2
                    SECONDS     MINUTES      HOURS       DAYS        YEARS
                    -----------------------------------------------------------
   TIME STEP LENGTH  86400.      1440.0      24.000      1.0000     2.73785E-03
 STRESS PERIOD TIME  86400.      1440.0      24.000      1.0000     2.73785E-03
         TOTAL TIME 1.72800E+05  2880.0      48.000      2.0000     5.47570E-03
1

 HEAD/DRAWDOWN SUM OF SQUARED DIFFERENCE:    1.04390E+04

 DRAIN FLOW OBSERVATIONS
 OBSERVATION       OBSERVED           SIMULATED
   NAME              VALUE              VALUE             DIFFERENCE
 --------------------------------------------------------------------
 DRAIN_1        -250.00000000        0.0000000000       -250.00000000    
 DRAIN_2        -180.00000000        0.0000000000       -180.00000000    

 DRN FLOW SUM OF SQUARED DIFFERENCE:    9.49000E+04

 Run end date and time (yyyy/mm/dd hh:mm:ss): 2025/08/07 23:16:33
 Elapsed run time:  0.001 Seconds

