                                  MODFLOW-NWT-SWR1 
      U.S. GEOLOGICAL SURVEY MODULAR FINITE-DIFFERENCE GROUNDWATER-FLOW MODEL
                            VERSION 1.3.0 07/01/2022
                    BASED ON MODFLOW-2005 VERSION 1.12.00 02/03/2017

 LIST FILE: sfr_ag_working.list
                         UNIT    2

 OPENING sfr_ag_working.dis
 FILE TYPE:DIS   UNIT   11   STATUS:OLD    
 FORMAT:FORMATTED              ACCESS:SEQUENTIAL          

 OPENING sfr_ag_working.bas
 FILE TYPE:BAS6   UNIT   13   STATUS:OLD    
 FORMAT:FORMATTED              ACCESS:SEQUENTIAL          

 OPENING sfr_ag_working.upw
 FILE TYPE:UPW   UNIT   31   STATUS:OLD    
 FORMAT:FORMATTED              ACCESS:SEQUENTIAL          

 OPENING sfr_ag_working.sfr
 FILE TYPE:SFR   UNIT   17   STATUS:OLD    
 FORMAT:FORMATTED              ACCESS:SEQUENTIAL          

 OPENING sfr_ag_working.ag
 FILE TYPE:AG   UNIT   69   STATUS:OLD    
 FORMAT:FORMATTED              ACCESS:SEQUENTIAL          

 OPENING sfr_ag_working.nwt
 FILE TYPE:NWT   UNIT   32   STATUS:OLD    
 FORMAT:FORMATTED              ACCESS:SEQUENTIAL          

 OPENING sfr_ag_working.oc
 FILE TYPE:OC   UNIT   14   STATUS:OLD    
 FORMAT:FORMATTED              ACCESS:SEQUENTIAL          

 OPENING sfr_ag_working.hds
 FILE TYPE:DATA(BINARY)   UNIT   51   STATUS:REPLACE
 FORMAT:UNFORMATTED            ACCESS:STREAM              

 BAS -- BASIC PACKAGE, VERSION 1.3.0, 7/01/2022 INPUT READ FROM UNIT   13
 
 MODFLOW was compiled using mixed precision
 Precision of REAL variables:           6
 Precision of DOUBLE PRECISION variables:          15

 DISCRETIZATION INPUT DATA READ FROM UNIT   11
 # DIS package for MODFLOW-NWT generated by Flopy 3.9.3
    1 LAYERS        10 ROWS        10 COLUMNS
    1 STRESS PERIOD(S) IN SIMULATION
 MODEL TIME UNIT IS DAYS
 MODEL LENGTH UNIT IS METERS
  Confining bed flag for each layer:
   0

                     DELR =   100.000    

                     DELC =   100.000    

 TOP ELEVATION OF LAYER 1 =   100.000    

   MODEL LAYER BOTTOM EL. =   50.0000     FOR LAYER   1


 STRESS PERIOD     LENGTH       TIME STEPS     MULTIPLIER FOR DELT    SS FLAG
 ----------------------------------------------------------------------------
        1         365.0000         10                    1.000         TR

 TRANSIENT SIMULATION



 
 # BAS6 package for MODFLOW-NWT generated by Flopy 3.9.3                         
 THE FREE FORMAT OPTION HAS BEEN SELECTED



                     BOUNDARY ARRAY FOR LAYER   1
 READING ON UNIT   13 WITH FORMAT: (10I10)             

 AQUIFER HEAD WILL BE SET TO  -999.99     AT ALL NO-FLOW NODES (IBOUND=0).



                       INITIAL HEAD FOR LAYER   1
 READING ON UNIT   13 WITH FORMAT: (10E15.6)           
 # OC package for MODFLOW-NWT generated by Flopy 3.9.3

 OUTPUT CONTROL IS SPECIFIED ONLY AT TIME STEPS FOR WHICH OUTPUT IS DESIRED
 COMPACT CELL-BY-CELL BUDGET FILES WILL BE WRITTEN
 AUXILIARY DATA WILL BE SAVED IN CELL-BY-CELL BUDGET FILES
 HEAD PRINT FORMAT CODE IS   0    DRAWDOWN PRINT FORMAT CODE IS   0
 HEADS WILL BE SAVED ON UNIT   51    DRAWDOWNS WILL BE SAVED ON UNIT    0
 # NWT package for MODFLOW-NWT generated by Flopy 3.9.3

 NWT1 -- Newton Solver, VERSION 1.3.0, 7/01/2022
         INPUT READ FROM UNIT 32

 COMPLEX OPTION:
 DEFAULT SOLVER INPUT VALUES REFLECT STRONGLY NONLINEAR MODEL
 ***GMRES linear solver will be used***
 
   CONVERGENCE CRITERION OF   0.100000E+00 FOR HEAD SOLUTION
   AND A TOLERANCE OF   0.500000E+04 FOR FLOW SOLUTION AND 
   A MAXIMUM OF   200 OUTER ITERATIONS. 


   D-B-D REDUCTION FACTOR OF    0.850000E+00 AND 
   A D-B-D INCREASE FACTOR OF    0.100000E-04 AND 
   A D-B-D RELAXATION OF    0.000000E+00 AND 
   A MOMENTUM FACTOR OF    0.100000E+00 .


   BACKTRACKING IS ACTIVE 
   THE MAXIMUM NUMBER OF BACKTRACKS IS    50 AND 
   THE BACKTRACKING TOLERANCE IS    0.110000E+01 AND
   THE BACKTRACKING REDUCTION FACTOR IS    0.700000E+00

 GMRES -- LINEAR SOLUTION BY GMRES PACKAGE 
     adapted for HYDROTHERM by Kipp and others (2008)
     using software originally developed by Saad (1990) 32
     using algorithms described in Saad (2003)

 UPW1 -- UPSTREAM WEIGHTING FLOW PACKAGE, VERSION 1.3.0, 7/01/2022
         INPUT READ FROM UNIT 31

 # UPW package for MODFLOW-NWT generated by Flopy 3.9.3
 No named parameters

   LAYER FLAGS:
 LAYER       LAYTYP          LAYAVG    CHANI           LAYVKA           LAYWET
 ---------------------------------------------------------------------------
    1             1             0     1.000E+00             0             0

   INTERPRETATION OF LAYER FLAGS:
                        INTERBLOCK     HORIZONTAL    DATA IN
         LAYER TYPE   TRANSMISSIVITY   ANISOTROPY   ARRAY VKA   WETTABILITY
 LAYER   (LAYTYP)        (LAYAVG)      (CHANI)     (LAYVKA)       (LAYWET)
 ---------------------------------------------------------------------------
    1   CONVERTIBLE      HARMONIC     1.000E+00    VERTICAL K  NON-WETTABLE

    HYD. COND. ALONG ROWS =   10.0000     FOR LAYER   1

      VERTICAL HYD. COND. =   1.00000     FOR LAYER   1

         SPECIFIC STORAGE =  1.000000E-05 FOR LAYER   1

           SPECIFIC YIELD =  0.150000     FOR LAYER   1

 SFR7 -- STREAMFLOW ROUTING PACKAGE, VERSION 1.3.0, 2022-07-01
         INPUT READ FROM UNIT  17
 # SFR package for MODFLOW-NWT generated by Flopy 3.9.3
 No named parameters


 NUMBER OF STREAM REACHES IS    8

 NUMBER OF STREAM SEGMENTS IS    1

 NUMBER OF STREAM PARAMETERS IS    0

 NUMBER OF STREAM SEGMENTS DEFINED USING PARAMETERS IS              0

 MAXIMUM ERROR FOR STREAM LEAKAGE RATES IS  1.00E-04

 CONSTANT FOR MANNINGS EQUATION IS  8.6400E+04





   STREAM NETWORK DESCRIPTION: 

   LAYER    ROW    COL   SEGMENT   REACH     LENGTH
                          NUMBER   NUMBER    IN CELL        
   --------------------------------------------------
      1      2      5       1        1    1.0000E+02
      1      3      5       1        2    1.0000E+02
      1      4      5       1        3    1.0000E+02
      1      5      5       1        4    1.0000E+02
      1      6      5       1        5    1.0000E+02
      1      7      5       1        6    1.0000E+02
      1      8      5       1        7    1.0000E+02
      1      9      5       1        8    1.0000E+02




 AG -- AG PACKAGE FOR NWT VERSION 1.3.0,  3/03/2020 INPUT READ FROM UNIT   69
 # AG package for MODFLOW-NWT generated by Flopy 3.9.3

 PROCESSING AG OPTIONS

 END PROCESSING AG OPTIONS
 # segment list for irrigation diversions
 No wells active in the AG Package
1
                            STRESS PERIOD NO.    1, LENGTH =   365.0000    
                            -----------------------------------------------

                              NUMBER OF TIME STEPS =    10

                               MULTIPLIER FOR DELT =     1.000

                            INITIAL TIME STEP SIZE =   36.50000    

     *** WARNING *** UPSTREAM ELEVATION IS EQUAL TO OR LOWER THAN DOWNSTREAM ELEVATION FOR SEGMENT No.      1



 CLASSIFICATION & COUNT OF STREAM SEGMENTS BASED ON SOURCE OF INFLOW:

                HEADWATER     DIVERSION     RECEIVES TRIBUTARY FLOW
                ---------     ---------     -----------------------
                     1              0               0



                    INPUT DATA FOR EACH STREAM SEGMENT
 ---------------------------------------------------------------------------------------------

 SEGMENT    SEG.     INFLOW   OVERLAND   STREAM    STREAM   ICALC  OUTFLOW  DIVERSION PRIORITY
    NO.    LENGTH     RATE     RUNOFF      ET       PPT.    METH.  TO SEG.  FROM SEG.    NO.

      1  8.000E+02 5.000E+01 0.000E+00 0.000E+00 0.000E+00    0        0        0        0


         STREAMBED PROPERTIES AND STREAM DIMENSIONS

 SEGMENT     BED HYD. COND.      BED THICKNESS     ELEV.-TOP OF BED     WIDTH OF STREAM     DEPTH OF STREAM    STREAM ROUGHNESS
    No.     UPPER     LOWER     UPPER     LOWER     UPPER     LOWER     UPPER     LOWER     UPPER     LOWER   CHANNEL      BANK

     1  9.800E+01 9.400E+01 1.000E+00 1.000E+00 0.000E+00 0.000E+00 0.000E+00 0.000E+00 0.000E+00 0.000E+00




 PROCESSING SEGMENT LIST

 FINISHED READING SEGMENT LIST
 # ag stress period data

 PROCESSING AG STRESS PERIOD DATA

 READING AG STRESS PERIOD DATA

 END PROCESSING AG STRESS PERIOD DATA OPTIONS
 
 SOLVING FOR HEAD 

    ------------------------------------------------
       NWT REQUIRED            2 OUTER ITERATIONS 
       AND A TOTAL OF          2 INNER ITERATIONS.
    ------------------------------------------------

 OUTPUT CONTROL FOR STRESS PERIOD    1   TIME STEP    1
    SAVE HEAD FOR ALL LAYERS
    SAVE BUDGET

 HEAD WILL BE SAVED ON UNIT   51 AT END OF TIME STEP    1, STRESS PERIOD    1
 
 SOLVING FOR HEAD 

    ------------------------------------------------
       NWT REQUIRED            2 OUTER ITERATIONS 
       AND A TOTAL OF          2 INNER ITERATIONS.
    ------------------------------------------------

 NO OUTPUT CONTROL FOR STRESS PERIOD    1   TIME STEP    2
 
 SOLVING FOR HEAD 

    ------------------------------------------------
       NWT REQUIRED            2 OUTER ITERATIONS 
       AND A TOTAL OF          2 INNER ITERATIONS.
    ------------------------------------------------

 NO OUTPUT CONTROL FOR STRESS PERIOD    1   TIME STEP    3
 
 SOLVING FOR HEAD 

    ------------------------------------------------
       NWT REQUIRED            2 OUTER ITERATIONS 
       AND A TOTAL OF          2 INNER ITERATIONS.
    ------------------------------------------------

 NO OUTPUT CONTROL FOR STRESS PERIOD    1   TIME STEP    4
 
 SOLVING FOR HEAD 

    ------------------------------------------------
       NWT REQUIRED            2 OUTER ITERATIONS 
       AND A TOTAL OF          2 INNER ITERATIONS.
    ------------------------------------------------

 NO OUTPUT CONTROL FOR STRESS PERIOD    1   TIME STEP    5
 
 SOLVING FOR HEAD 

    ------------------------------------------------
       NWT REQUIRED            2 OUTER ITERATIONS 
       AND A TOTAL OF          2 INNER ITERATIONS.
    ------------------------------------------------

 NO OUTPUT CONTROL FOR STRESS PERIOD    1   TIME STEP    6
 
 SOLVING FOR HEAD 

    ------------------------------------------------
       NWT REQUIRED            2 OUTER ITERATIONS 
       AND A TOTAL OF          2 INNER ITERATIONS.
    ------------------------------------------------

 NO OUTPUT CONTROL FOR STRESS PERIOD    1   TIME STEP    7
 
 SOLVING FOR HEAD 

    ------------------------------------------------
       NWT REQUIRED            2 OUTER ITERATIONS 
       AND A TOTAL OF          2 INNER ITERATIONS.
    ------------------------------------------------

 NO OUTPUT CONTROL FOR STRESS PERIOD    1   TIME STEP    8
 
 SOLVING FOR HEAD 

    ------------------------------------------------
       NWT REQUIRED            2 OUTER ITERATIONS 
       AND A TOTAL OF          2 INNER ITERATIONS.
    ------------------------------------------------

 NO OUTPUT CONTROL FOR STRESS PERIOD    1   TIME STEP    9
 
 SOLVING FOR HEAD 

    ------------------------------------------------
       NWT REQUIRED            2 OUTER ITERATIONS 
       AND A TOTAL OF          2 INNER ITERATIONS.
    ------------------------------------------------

 NO OUTPUT CONTROL FOR STRESS PERIOD    1   TIME STEP   10
1
  VOLUMETRIC BUDGET FOR AGRICULTURAL FIELDS AT  END OF TIME STEP   10, STRESS PERIOD   1
  ------------------------------------------------------------------------------

     CUMULATIVE VOLUMES      L**3       RATES FOR THIS TIME STEP      L**3/T
     ------------------                 ------------------------

           IN:                                      IN:
           ---                                      ---
               AG WELLS  =           0.0000                 AG WELLS  =           0.0000
      DIVERSION SEGMENTS =           0.0000        DIVERSION SEGMENTS =           0.0000
           GW IRRIGATION =           0.0000             GW IRRIGATION =           0.0000
           SW IRRIGATION =           0.0000             SW IRRIGATION =           0.0000
        SYSTEM LOSSES GW =           0.0000          SYSTEM LOSSES GW =           0.0000
        SYSTEM LOSSES SW =           0.0000          SYSTEM LOSSES SW =           0.0000

                TOTAL IN =           0.0000                  TOTAL IN =           0.0000

          OUT:                                     OUT:
          ----                                     ----
               AG WELLS  =           0.0000                 AG WELLS  =           0.0000
      DIVERSION SEGMENTS =           0.0000        DIVERSION SEGMENTS =           0.0000
           GW IRRIGATION =           0.0000             GW IRRIGATION =           0.0000
           SW IRRIGATION =           0.0000             SW IRRIGATION =           0.0000
        SYSTEM LOSSES GW =           0.0000          SYSTEM LOSSES GW =           0.0000
        SYSTEM LOSSES SW =           0.0000          SYSTEM LOSSES SW =           0.0000

               TOTAL OUT =           0.0000                 TOTAL OUT =           0.0000

                IN - OUT =           0.0000                  IN - OUT =           0.0000

     PERCENT DISCREPANCY =           0.00         PERCENT DISCREPANCY =           0.00



1
  VOLUMETRIC BUDGET FOR ENTIRE MODEL AT END OF TIME STEP   10, STRESS PERIOD   1
  ------------------------------------------------------------------------------

     CUMULATIVE VOLUMES      L**3       RATES FOR THIS TIME STEP      L**3/T
     ------------------                 ------------------------

           IN:                                      IN:
           ---                                      ---
             STORAGE     =       2.0606E-08               STORAGE     =       7.0210E-11
       CONSTANT HEAD     =           0.0000         CONSTANT HEAD     =           0.0000
      STREAM LEAKAGE     =           0.0000        STREAM LEAKAGE     =           0.0000
           AG WELLS      =           0.0000             AG WELLS      =           0.0000

                TOTAL IN =       2.0606E-08                  TOTAL IN =       7.0210E-11

          OUT:                                     OUT:
          ----                                     ----
             STORAGE     =       4.2713E-08               STORAGE     =       8.2967E-11
       CONSTANT HEAD     =           0.0000         CONSTANT HEAD     =           0.0000
      STREAM LEAKAGE     =           0.0000        STREAM LEAKAGE     =           0.0000
           AG WELLS      =           0.0000             AG WELLS      =           0.0000

               TOTAL OUT =       4.2713E-08                 TOTAL OUT =       8.2967E-11

                IN - OUT =      -2.2106E-08                  IN - OUT =      -1.2756E-11

     PERCENT DISCREPANCY =         -69.82         PERCENT DISCREPANCY =         -16.66






         TIME SUMMARY AT END OF TIME STEP   10 IN STRESS PERIOD    1
                    SECONDS     MINUTES      HOURS       DAYS        YEARS
                    -----------------------------------------------------------
   TIME STEP LENGTH 3.15360E+06  52560.      876.00      36.500     9.99316E-02
 STRESS PERIOD TIME 3.15360E+07 5.25600E+05  8760.0      365.00     0.99932    
         TOTAL TIME 3.15360E+07 5.25600E+05  8760.0      365.00     0.99932    
1

 Run end date and time (yyyy/mm/dd hh:mm:ss): 2025/08/07 23:27:16
 Elapsed run time:  0.002 Seconds

