                                  MODFLOW-2005     
      U.S. GEOLOGICAL SURVEY MODULAR FINITE-DIFFERENCE GROUND-WATER FLOW MODEL
                            VERSION 1.12.00 2/3/2017

 LIST FILE: subwt_demo.list
                         UNIT    2

 OPENING subwt_demo.dis
 FILE TYPE:DIS   UNIT   11   STATUS:OLD    
 FORMAT:FORMATTED              ACCESS:SEQUENTIAL          

 OPENING subwt_demo.bas
 FILE TYPE:BAS6   UNIT   13   STATUS:OLD    
 FORMAT:FORMATTED              ACCESS:SEQUENTIAL          

 OPENING subwt_demo.lpf
 FILE TYPE:LPF   UNIT   15   STATUS:OLD    
 FORMAT:FORMATTED              ACCESS:SEQUENTIAL          

 OPENING subwt_demo.wel
 FILE TYPE:WEL   UNIT   20   STATUS:OLD    
 FORMAT:FORMATTED              ACCESS:SEQUENTIAL          

 OPENING subwt_demo.swt
 FILE TYPE:SWT   UNIT   35   STATUS:OLD    
 FORMAT:FORMATTED              ACCESS:SEQUENTIAL          

 OPENING subwt_demo.oc
 FILE TYPE:OC   UNIT   14   STATUS:OLD    
 FORMAT:FORMATTED              ACCESS:SEQUENTIAL          

 OPENING subwt_demo.pcg
 FILE TYPE:PCG   UNIT   27   STATUS:OLD    
 FORMAT:FORMATTED              ACCESS:SEQUENTIAL          

 OPENING subwt_demo.swt_subsidence.hds
 FILE TYPE:DATA(BINARY)   UNIT 2052   STATUS:REPLACE
 FORMAT:UNFORMATTED            ACCESS:STREAM              

 OPENING subwt_demo.swt_total_comp.hds
 FILE TYPE:DATA(BINARY)   UNIT 2053   STATUS:REPLACE
 FORMAT:UNFORMATTED            ACCESS:STREAM              

 OPENING subwt_demo.swt_inter_comp.hds
 FILE TYPE:DATA(BINARY)   UNIT 2054   STATUS:REPLACE
 FORMAT:UNFORMATTED            ACCESS:STREAM              

 OPENING subwt_demo.swt_vert_disp.hds
 FILE TYPE:DATA(BINARY)   UNIT 2055   STATUS:REPLACE
 FORMAT:UNFORMATTED            ACCESS:STREAM              

 OPENING subwt_demo.swt_precon_stress.hds
 FILE TYPE:DATA(BINARY)   UNIT 2056   STATUS:REPLACE
 FORMAT:UNFORMATTED            ACCESS:STREAM              

 OPENING subwt_demo.swt_precon_stress_delta.hds
 FILE TYPE:DATA(BINARY)   UNIT 2057   STATUS:REPLACE
 FORMAT:UNFORMATTED            ACCESS:STREAM              

 OPENING subwt_demo.swt_geostatic_stress.hds
 FILE TYPE:DATA(BINARY)   UNIT 2058   STATUS:REPLACE
 FORMAT:UNFORMATTED            ACCESS:STREAM              

 OPENING subwt_demo.swt_geostatic_stress_delta.hds
 FILE TYPE:DATA(BINARY)   UNIT 2059   STATUS:REPLACE
 FORMAT:UNFORMATTED            ACCESS:STREAM              

 OPENING subwt_demo.swt_eff_stress.hds
 FILE TYPE:DATA(BINARY)   UNIT 2060   STATUS:REPLACE
 FORMAT:UNFORMATTED            ACCESS:STREAM              

 OPENING subwt_demo.swt_eff_stress_delta.hds
 FILE TYPE:DATA(BINARY)   UNIT 2061   STATUS:REPLACE
 FORMAT:UNFORMATTED            ACCESS:STREAM              

 OPENING subwt_demo.swt_void_ratio.hds
 FILE TYPE:DATA(BINARY)   UNIT 2062   STATUS:REPLACE
 FORMAT:UNFORMATTED            ACCESS:STREAM              

 OPENING subwt_demo.swt_thick.hds
 FILE TYPE:DATA(BINARY)   UNIT 2063   STATUS:REPLACE
 FORMAT:UNFORMATTED            ACCESS:STREAM              

 OPENING subwt_demo.swt_lay_center.hds
 FILE TYPE:DATA(BINARY)   UNIT 2064   STATUS:REPLACE
 FORMAT:UNFORMATTED            ACCESS:STREAM              

 OPENING subwt_demo.hds
 FILE TYPE:DATA(BINARY)   UNIT   51   STATUS:REPLACE
 FORMAT:UNFORMATTED            ACCESS:STREAM              

 BAS -- BASIC PACKAGE, VERSION 7, 5/2/2005 INPUT READ FROM UNIT   13
 
 MODFLOW was compiled using mixed precision
 Precision of REAL variables:           6
 Precision of DOUBLE PRECISION variables:          15

 DISCRETIZATION INPUT DATA READ FROM UNIT   11
 # DIS package for MODFLOW-2005 generated by Flopy 3.9.3
    3 LAYERS        10 ROWS        10 COLUMNS
    2 STRESS PERIOD(S) IN SIMULATION
 MODEL TIME UNIT IS DAYS
 MODEL LENGTH UNIT IS METERS
  Confining bed flag for each layer:
   0   0   0

                     DELR =   100.000    

                     DELC =   100.000    

 TOP ELEVATION OF LAYER 1 =   50.0000    

   MODEL LAYER BOTTOM EL. =   0.00000     FOR LAYER   1

   MODEL LAYER BOTTOM EL. =  -50.0000     FOR LAYER   2

   MODEL LAYER BOTTOM EL. =  -100.000     FOR LAYER   3


 STRESS PERIOD     LENGTH       TIME STEPS     MULTIPLIER FOR DELT    SS FLAG
 ----------------------------------------------------------------------------
        1         1.000000          1                    1.000         SS
        2         365.0000         10                    1.000         TR

 COMBINED STEADY-STATE AND TRANSIENT SIMULATION



 
 # BAS6 package for MODFLOW-2005 generated by Flopy 3.9.3                        
 THE FREE FORMAT OPTION HAS BEEN SELECTED



                     BOUNDARY ARRAY FOR LAYER   1
 READING ON UNIT   13 WITH FORMAT: (10I10)             



                     BOUNDARY ARRAY FOR LAYER   2
 READING ON UNIT   13 WITH FORMAT: (10I10)             



                     BOUNDARY ARRAY FOR LAYER   3
 READING ON UNIT   13 WITH FORMAT: (10I10)             

 AQUIFER HEAD WILL BE SET TO  -999.99     AT ALL NO-FLOW NODES (IBOUND=0).



                       INITIAL HEAD FOR LAYER   1
 READING ON UNIT   13 WITH FORMAT: (10E15.6)           



                       INITIAL HEAD FOR LAYER   2
 READING ON UNIT   13 WITH FORMAT: (10E15.6)           



                       INITIAL HEAD FOR LAYER   3
 READING ON UNIT   13 WITH FORMAT: (10E15.6)           
 # OC package for MODFLOW-2005 generated by Flopy 3.9.3

 OUTPUT CONTROL IS SPECIFIED ONLY AT TIME STEPS FOR WHICH OUTPUT IS DESIRED
 COMPACT CELL-BY-CELL BUDGET FILES WILL BE WRITTEN
 AUXILIARY DATA WILL BE SAVED IN CELL-BY-CELL BUDGET FILES
 HEAD PRINT FORMAT CODE IS   0    DRAWDOWN PRINT FORMAT CODE IS   0
 HEADS WILL BE SAVED ON UNIT   51    DRAWDOWNS WILL BE SAVED ON UNIT    0

 LPF -- LAYER-PROPERTY FLOW PACKAGE, VERSION 7, 5/2/2005
         INPUT READ FROM UNIT   15
 # LPF package for MODFLOW-2005 generated by Flopy 3.9.3
 HEAD AT CELLS THAT CONVERT TO DRY= -1.00000E+30
 No named parameters

   LAYER FLAGS:
 LAYER       LAYTYP        LAYAVG         CHANI        LAYVKA        LAYWET
 ---------------------------------------------------------------------------
    1             1             0     1.000E+00             0             0
    2             0             0     1.000E+00             0             0
    3             0             0     1.000E+00             0             0

   INTERPRETATION OF LAYER FLAGS:
                        INTERBLOCK     HORIZONTAL    DATA IN
         LAYER TYPE   TRANSMISSIVITY   ANISOTROPY   ARRAY VKA   WETTABILITY
 LAYER      (LAYTYP)      (LAYAVG)       (CHANI)      (LAYVKA)      (LAYWET)
 ---------------------------------------------------------------------------
    1   CONVERTIBLE      HARMONIC     1.000E+00    VERTICAL K  NON-WETTABLE
    2      CONFINED      HARMONIC     1.000E+00    VERTICAL K  NON-WETTABLE
    3      CONFINED      HARMONIC     1.000E+00    VERTICAL K  NON-WETTABLE

 WETTING CAPABILITY IS NOT ACTIVE IN ANY LAYER

    HYD. COND. ALONG ROWS =   10.0000     FOR LAYER   1

      VERTICAL HYD. COND. =  0.100000     FOR LAYER   1

         SPECIFIC STORAGE =  1.000000E-05 FOR LAYER   1

           SPECIFIC YIELD =  0.150000     FOR LAYER   1

    HYD. COND. ALONG ROWS =   10.0000     FOR LAYER   2

      VERTICAL HYD. COND. =  0.100000     FOR LAYER   2

         SPECIFIC STORAGE =  1.000000E-05 FOR LAYER   2

    HYD. COND. ALONG ROWS =   10.0000     FOR LAYER   3

      VERTICAL HYD. COND. =  0.100000     FOR LAYER   3

         SPECIFIC STORAGE =  1.000000E-05 FOR LAYER   3

 WEL -- WELL PACKAGE, VERSION 7, 5/2/2005 INPUT READ FROM UNIT   20
 # WEL package for MODFLOW-2005 generated by Flopy 3.9.3
 No named parameters
 MAXIMUM OF      1 ACTIVE WELLS AT ONE TIME


     0 Well parameters

 PCG -- CONJUGATE-GRADIENT SOLUTION PACKAGE, VERSION 7, 5/2/2005
 # PCG package for MODFLOW-2005 generated by Flopy 3.9.3
 MAXIMUM OF    200 CALLS OF SOLUTION ROUTINE
 MAXIMUM OF    100 INTERNAL ITERATIONS PER CALL TO SOLUTION ROUTINE
 MATRIX PRECONDITIONING TYPE :    1



                                    SOLUTION BY THE CONJUGATE-GRADIENT METHOD
                                   -------------------------------------------
                    MAXIMUM NUMBER OF CALLS TO PCG ROUTINE =      200
                        MAXIMUM ITERATIONS PER CALL TO PCG =      100
                               MATRIX PRECONDITIONING TYPE =        1
        RELAXATION FACTOR (ONLY USED WITH PRECOND. TYPE 1) =    0.10000E+01
 PARAMETER OF POLYNOMIAL PRECOND. = 2 (2) OR IS CALCULATED :        0
                         HEAD CHANGE CRITERION FOR CLOSURE =    0.10000E+00
                     RESIDUAL CHANGE CRITERION FOR CLOSURE =    0.10000E+02
            PCG HEAD AND RESIDUAL CHANGE PRINTOUT INTERVAL =      999
     PRINTING FROM SOLVER IS LIMITED(1) OR SUPPRESSED (>1) =        3
                            STEADY-STATE DAMPING PARAMETER =    0.10000E+01
                               TRANSIENT DAMPING PARAMETER =    0.10000E+01
SWT -- SUBSIDENCE FOR WATER-TABLE PACKAGE, VERSION 1, 05/26/06 INPUT READ FROM UNIT 35
 # SWT package for MODFLOW-2005 generated by Flopy 3.9.3
    1 OUTPUT CONTROL RECORDS FOR SUB-WT PACKAGE WILL BE READ.

      NUMBER OF SYSTEMS OF INTERBEDS FOR WT SUBSIDENCE:  3
 THICKNESS OF INTERBEDS FOR SUB-WT PACKAGE WILL BE TREATED AS A CONSTANT.
 VOID RATIO FOR SUB-WT PACKAGE WILL BE TREATED AS A CONSTANT.
 ARRAYS OF OFFSET VALUES WILL BE READ AND ADDED TO INITIAL
 EFFECTIVE STRESS TO GET INITIAL PRECONSOLIDATION STRESS.
 RECOMPRESSION AND COMPRESSION INDICES WILL BE READ
 DIRECTLY INTO ARRAYS.

 MODEL LAYER ASSIGNMENTS FOR EACH OF  3 SUB-WT SYSTEMS OF INTERBEDS:
    1   2   3

         GEOSTATIC STRESS =   0.00000     FOR LAYER   1

   MOIST SPECIFIC GRAVITY =   1.70000     FOR LAYER   1

    SAT. SPECIFIC GRAVITY =   2.00000     FOR LAYER   1

  SILT AND CLAY THICKNESS =   10.0000     FOR LAYER   1

      RECOMPRESSION INDEX =  1.000000E-03 FOR LAYER   1

        COMPRESSION INDEX =  1.000000E-02 FOR LAYER   1

               VOID RATIO =  0.820000     FOR LAYER   1

      STARTING COMPACTION =   0.00000     FOR LAYER   1

  SILT AND CLAY THICKNESS =   15.0000     FOR LAYER   2

      RECOMPRESSION INDEX =  1.000000E-03 FOR LAYER   2

        COMPRESSION INDEX =  1.000000E-02 FOR LAYER   2

               VOID RATIO =  0.820000     FOR LAYER   2

      STARTING COMPACTION =   0.00000     FOR LAYER   2

  SILT AND CLAY THICKNESS =   10.0000     FOR LAYER   3

      RECOMPRESSION INDEX =  1.000000E-03 FOR LAYER   3

        COMPRESSION INDEX =  1.000000E-02 FOR LAYER   3

               VOID RATIO =  0.820000     FOR LAYER   3

      STARTING COMPACTION =   0.00000     FOR LAYER   3

      PRECONSOL.   STRESS =   5.00000     FOR LAYER   1

      PRECONSOL.   STRESS =   5.00000     FOR LAYER   2

      PRECONSOL.   STRESS =   5.00000     FOR LAYER   3
 Calculated arrays for SUBWT will be printed after initial steady-state stress period.

             SUBSIDENCE PRINT FORMAT IS NUMBER   0
                 UNIT FOR SAVING SUBSIDENCE IS2052
    COMPACTION BY LAYER PRINT FORMAT IS NUMBER   0
        UNIT FOR SAVING COMPACTION BY LAYER IS2053
   COMPACTION BY SYSTEM PRINT FORMAT IS NUMBER   0
       UNIT FOR SAVING COMPACTION BY SYSTEM IS2054
  VERTICAL DISPLACEMENT PRINT FORMAT IS NUMBER   0
      UNIT FOR SAVING VERTICAL DISPLACEMENT IS2055
PRECONSOLIDATION STRESS PRINT FORMAT IS NUMBER   0
    UNIT FOR SAVING PRECONSOLIDATION STRESS IS2056
CHANGE IN PRECON STRESS PRINT FORMAT IS NUMBER   0
 UNIT FOR SAVING CHANGE IN PRECONSOL STRESS IS2057
       GEOSTATIC STRESS PRINT FORMAT IS NUMBER   0
           UNIT FOR SAVING GEOSTATIC STRESS IS2058
CHNGE IN GEOSTATIC STRS PRINT FORMAT IS NUMBER   0
 UNIT FOR SAVING CHANGE IN GEOSTATIC STRESS IS2059
       EFFECTIVE STRESS PRINT FORMAT IS NUMBER   0
           UNIT FOR SAVING EFFECTIVE STRESS IS2060
  CHANGE IN EFF. STRESS PRINT FORMAT IS NUMBER   0
 UNIT FOR SAVING CHANGE IN EFFECTIVE STRESS IS2061
             VOID RATIO PRINT FORMAT IS NUMBER   0
                 UNIT FOR SAVING VOID RATIO IS2062
              THICKNESS PRINT FORMAT IS NUMBER   0
                  UNIT FOR SAVING THICKNESS IS2063
       CENTER ELEVATION PRINT FORMAT IS NUMBER   0
           UNIT FOR SAVING CENTER ELEVATION IS2064
1
                            STRESS PERIOD NO.    1, LENGTH =   1.000000    
                            -----------------------------------------------

                              NUMBER OF TIME STEPS =     1

                               MULTIPLIER FOR DELT =     1.000

                            INITIAL TIME STEP SIZE =   1.000000    

      0 WELLS
 
 SOLVING FOR HEAD 

 OUTPUT CONTROL FOR STRESS PERIOD    1   TIME STEP    1
    SAVE HEAD FOR ALL LAYERS
    SAVE BUDGET

 HEAD WILL BE SAVED ON UNIT   51 AT END OF TIME STEP    1, STRESS PERIOD    1
1
  VOLUMETRIC BUDGET FOR ENTIRE MODEL AT END OF TIME STEP    1, STRESS PERIOD   1
  ------------------------------------------------------------------------------

     CUMULATIVE VOLUMES      L**3       RATES FOR THIS TIME STEP      L**3/T
     ------------------                 ------------------------

           IN:                                      IN:
           ---                                      ---
             STORAGE =           0.0000               STORAGE =           0.0000
       CONSTANT HEAD =           0.0000         CONSTANT HEAD =           0.0000
               WELLS =           0.0000                 WELLS =           0.0000
    INTERBED STORAGE =           0.0000      INTERBED STORAGE =           0.0000

            TOTAL IN =           0.0000              TOTAL IN =           0.0000

          OUT:                                     OUT:
          ----                                     ----
             STORAGE =           0.0000               STORAGE =           0.0000
       CONSTANT HEAD =           0.0000         CONSTANT HEAD =           0.0000
               WELLS =           0.0000                 WELLS =           0.0000
    INTERBED STORAGE =           0.0000      INTERBED STORAGE =           0.0000

           TOTAL OUT =           0.0000             TOTAL OUT =           0.0000

            IN - OUT =           0.0000              IN - OUT =           0.0000

 PERCENT DISCREPANCY =           0.00     PERCENT DISCREPANCY =           0.00






         TIME SUMMARY AT END OF TIME STEP    1 IN STRESS PERIOD    1
                    SECONDS     MINUTES      HOURS       DAYS        YEARS
                    -----------------------------------------------------------
   TIME STEP LENGTH  86400.      1440.0      24.000      1.0000     2.73785E-03
 STRESS PERIOD TIME  86400.      1440.0      24.000      1.0000     2.73785E-03
         TOTAL TIME  86400.      1440.0      24.000      1.0000     2.73785E-03
1
 The following subsidence array is the sum of compaction values for all systems of interbeds:
1
        SUBSIDENCE IN LAYER   1 AT END OF TIME STEP   1 IN STRESS PERIOD    1
  ---------------------------------------------------------------------------

            1           2           3           4           5           6           7           8           9          10
 ........................................................................................................................
   1    0.000       0.000       0.000       0.000       0.000       0.000       0.000       0.000       0.000       0.000    
   2    0.000       0.000       0.000       0.000       0.000       0.000       0.000       0.000       0.000       0.000    
   3    0.000       0.000       0.000       0.000       0.000       0.000       0.000       0.000       0.000       0.000    
   4    0.000       0.000       0.000       0.000       0.000       0.000       0.000       0.000       0.000       0.000    
   5    0.000       0.000       0.000       0.000       0.000       0.000       0.000       0.000       0.000       0.000    
   6    0.000       0.000       0.000       0.000       0.000       0.000       0.000       0.000       0.000       0.000    
   7    0.000       0.000       0.000       0.000       0.000       0.000       0.000       0.000       0.000       0.000    
   8    0.000       0.000       0.000       0.000       0.000       0.000       0.000       0.000       0.000       0.000    
   9    0.000       0.000       0.000       0.000       0.000       0.000       0.000       0.000       0.000       0.000    
  10    0.000       0.000       0.000       0.000       0.000       0.000       0.000       0.000       0.000       0.000    

  SYSTEM   1 OF SUBWT INTERBEDS:
1
  SYSTM COMPACTION IN LAYER   1 AT END OF TIME STEP   1 IN STRESS PERIOD    1
  ---------------------------------------------------------------------------

            1           2           3           4           5           6           7           8           9          10
 ........................................................................................................................
   1    0.000       0.000       0.000       0.000       0.000       0.000       0.000       0.000       0.000       0.000    
   2    0.000       0.000       0.000       0.000       0.000       0.000       0.000       0.000       0.000       0.000    
   3    0.000       0.000       0.000       0.000       0.000       0.000       0.000       0.000       0.000       0.000    
   4    0.000       0.000       0.000       0.000       0.000       0.000       0.000       0.000       0.000       0.000    
   5    0.000       0.000       0.000       0.000       0.000       0.000       0.000       0.000       0.000       0.000    
   6    0.000       0.000       0.000       0.000       0.000       0.000       0.000       0.000       0.000       0.000    
   7    0.000       0.000       0.000       0.000       0.000       0.000       0.000       0.000       0.000       0.000    
   8    0.000       0.000       0.000       0.000       0.000       0.000       0.000       0.000       0.000       0.000    
   9    0.000       0.000       0.000       0.000       0.000       0.000       0.000       0.000       0.000       0.000    
  10    0.000       0.000       0.000       0.000       0.000       0.000       0.000       0.000       0.000       0.000    

  SYSTEM   2 OF SUBWT INTERBEDS:
1
  SYSTM COMPACTION IN LAYER   2 AT END OF TIME STEP   1 IN STRESS PERIOD    1
  ---------------------------------------------------------------------------

            1           2           3           4           5           6           7           8           9          10
 ........................................................................................................................
   1    0.000       0.000       0.000       0.000       0.000       0.000       0.000       0.000       0.000       0.000    
   2    0.000       0.000       0.000       0.000       0.000       0.000       0.000       0.000       0.000       0.000    
   3    0.000       0.000       0.000       0.000       0.000       0.000       0.000       0.000       0.000       0.000    
   4    0.000       0.000       0.000       0.000       0.000       0.000       0.000       0.000       0.000       0.000    
   5    0.000       0.000       0.000       0.000       0.000       0.000       0.000       0.000       0.000       0.000    
   6    0.000       0.000       0.000       0.000       0.000       0.000       0.000       0.000       0.000       0.000    
   7    0.000       0.000       0.000       0.000       0.000       0.000       0.000       0.000       0.000       0.000    
   8    0.000       0.000       0.000       0.000       0.000       0.000       0.000       0.000       0.000       0.000    
   9    0.000       0.000       0.000       0.000       0.000       0.000       0.000       0.000       0.000       0.000    
  10    0.000       0.000       0.000       0.000       0.000       0.000       0.000       0.000       0.000       0.000    

  SYSTEM   3 OF SUBWT INTERBEDS:
1
  SYSTM COMPACTION IN LAYER   3 AT END OF TIME STEP   1 IN STRESS PERIOD    1
  ---------------------------------------------------------------------------

            1           2           3           4           5           6           7           8           9          10
 ........................................................................................................................
   1    0.000       0.000       0.000       0.000       0.000       0.000       0.000       0.000       0.000       0.000    
   2    0.000       0.000       0.000       0.000       0.000       0.000       0.000       0.000       0.000       0.000    
   3    0.000       0.000       0.000       0.000       0.000       0.000       0.000       0.000       0.000       0.000    
   4    0.000       0.000       0.000       0.000       0.000       0.000       0.000       0.000       0.000       0.000    
   5    0.000       0.000       0.000       0.000       0.000       0.000       0.000       0.000       0.000       0.000    
   6    0.000       0.000       0.000       0.000       0.000       0.000       0.000       0.000       0.000       0.000    
   7    0.000       0.000       0.000       0.000       0.000       0.000       0.000       0.000       0.000       0.000    
   8    0.000       0.000       0.000       0.000       0.000       0.000       0.000       0.000       0.000       0.000    
   9    0.000       0.000       0.000       0.000       0.000       0.000       0.000       0.000       0.000       0.000    
  10    0.000       0.000       0.000       0.000       0.000       0.000       0.000       0.000       0.000       0.000    
1
  LAYER COMPACTION IN LAYER   1 AT END OF TIME STEP   1 IN STRESS PERIOD    1
  ---------------------------------------------------------------------------

            1           2           3           4           5           6           7           8           9          10
 ........................................................................................................................
   1    0.000       0.000       0.000       0.000       0.000       0.000       0.000       0.000       0.000       0.000    
   2    0.000       0.000       0.000       0.000       0.000       0.000       0.000       0.000       0.000       0.000    
   3    0.000       0.000       0.000       0.000       0.000       0.000       0.000       0.000       0.000       0.000    
   4    0.000       0.000       0.000       0.000       0.000       0.000       0.000       0.000       0.000       0.000    
   5    0.000       0.000       0.000       0.000       0.000       0.000       0.000       0.000       0.000       0.000    
   6    0.000       0.000       0.000       0.000       0.000       0.000       0.000       0.000       0.000       0.000    
   7    0.000       0.000       0.000       0.000       0.000       0.000       0.000       0.000       0.000       0.000    
   8    0.000       0.000       0.000       0.000       0.000       0.000       0.000       0.000       0.000       0.000    
   9    0.000       0.000       0.000       0.000       0.000       0.000       0.000       0.000       0.000       0.000    
  10    0.000       0.000       0.000       0.000       0.000       0.000       0.000       0.000       0.000       0.000    
1
  LAYER COMPACTION IN LAYER   2 AT END OF TIME STEP   1 IN STRESS PERIOD    1
  ---------------------------------------------------------------------------

            1           2           3           4           5           6           7           8           9          10
 ........................................................................................................................
   1    0.000       0.000       0.000       0.000       0.000       0.000       0.000       0.000       0.000       0.000    
   2    0.000       0.000       0.000       0.000       0.000       0.000       0.000       0.000       0.000       0.000    
   3    0.000       0.000       0.000       0.000       0.000       0.000       0.000       0.000       0.000       0.000    
   4    0.000       0.000       0.000       0.000       0.000       0.000       0.000       0.000       0.000       0.000    
   5    0.000       0.000       0.000       0.000       0.000       0.000       0.000       0.000       0.000       0.000    
   6    0.000       0.000       0.000       0.000       0.000       0.000       0.000       0.000       0.000       0.000    
   7    0.000       0.000       0.000       0.000       0.000       0.000       0.000       0.000       0.000       0.000    
   8    0.000       0.000       0.000       0.000       0.000       0.000       0.000       0.000       0.000       0.000    
   9    0.000       0.000       0.000       0.000       0.000       0.000       0.000       0.000       0.000       0.000    
  10    0.000       0.000       0.000       0.000       0.000       0.000       0.000       0.000       0.000       0.000    
1
  LAYER COMPACTION IN LAYER   3 AT END OF TIME STEP   1 IN STRESS PERIOD    1
  ---------------------------------------------------------------------------

            1           2           3           4           5           6           7           8           9          10
 ........................................................................................................................
   1    0.000       0.000       0.000       0.000       0.000       0.000       0.000       0.000       0.000       0.000    
   2    0.000       0.000       0.000       0.000       0.000       0.000       0.000       0.000       0.000       0.000    
   3    0.000       0.000       0.000       0.000       0.000       0.000       0.000       0.000       0.000       0.000    
   4    0.000       0.000       0.000       0.000       0.000       0.000       0.000       0.000       0.000       0.000    
   5    0.000       0.000       0.000       0.000       0.000       0.000       0.000       0.000       0.000       0.000    
   6    0.000       0.000       0.000       0.000       0.000       0.000       0.000       0.000       0.000       0.000    
   7    0.000       0.000       0.000       0.000       0.000       0.000       0.000       0.000       0.000       0.000    
   8    0.000       0.000       0.000       0.000       0.000       0.000       0.000       0.000       0.000       0.000    
   9    0.000       0.000       0.000       0.000       0.000       0.000       0.000       0.000       0.000       0.000    
  10    0.000       0.000       0.000       0.000       0.000       0.000       0.000       0.000       0.000       0.000    
1
    Z DISPLACEMENT IN LAYER   1 AT END OF TIME STEP   1 IN STRESS PERIOD    1
  ---------------------------------------------------------------------------

            1           2           3           4           5           6           7           8           9          10
 ........................................................................................................................
   1    0.000       0.000       0.000       0.000       0.000       0.000       0.000       0.000       0.000       0.000    
   2    0.000       0.000       0.000       0.000       0.000       0.000       0.000       0.000       0.000       0.000    
   3    0.000       0.000       0.000       0.000       0.000       0.000       0.000       0.000       0.000       0.000    
   4    0.000       0.000       0.000       0.000       0.000       0.000       0.000       0.000       0.000       0.000    
   5    0.000       0.000       0.000       0.000       0.000       0.000       0.000       0.000       0.000       0.000    
   6    0.000       0.000       0.000       0.000       0.000       0.000       0.000       0.000       0.000       0.000    
   7    0.000       0.000       0.000       0.000       0.000       0.000       0.000       0.000       0.000       0.000    
   8    0.000       0.000       0.000       0.000       0.000       0.000       0.000       0.000       0.000       0.000    
   9    0.000       0.000       0.000       0.000       0.000       0.000       0.000       0.000       0.000       0.000    
  10    0.000       0.000       0.000       0.000       0.000       0.000       0.000       0.000       0.000       0.000    
1
    Z DISPLACEMENT IN LAYER   2 AT END OF TIME STEP   1 IN STRESS PERIOD    1
  ---------------------------------------------------------------------------

            1           2           3           4           5           6           7           8           9          10
 ........................................................................................................................
   1    0.000       0.000       0.000       0.000       0.000       0.000       0.000       0.000       0.000       0.000    
   2    0.000       0.000       0.000       0.000       0.000       0.000       0.000       0.000       0.000       0.000    
   3    0.000       0.000       0.000       0.000       0.000       0.000       0.000       0.000       0.000       0.000    
   4    0.000       0.000       0.000       0.000       0.000       0.000       0.000       0.000       0.000       0.000    
   5    0.000       0.000       0.000       0.000       0.000       0.000       0.000       0.000       0.000       0.000    
   6    0.000       0.000       0.000       0.000       0.000       0.000       0.000       0.000       0.000       0.000    
   7    0.000       0.000       0.000       0.000       0.000       0.000       0.000       0.000       0.000       0.000    
   8    0.000       0.000       0.000       0.000       0.000       0.000       0.000       0.000       0.000       0.000    
   9    0.000       0.000       0.000       0.000       0.000       0.000       0.000       0.000       0.000       0.000    
  10    0.000       0.000       0.000       0.000       0.000       0.000       0.000       0.000       0.000       0.000    
1
    Z DISPLACEMENT IN LAYER   3 AT END OF TIME STEP   1 IN STRESS PERIOD    1
  ---------------------------------------------------------------------------

            1           2           3           4           5           6           7           8           9          10
 ........................................................................................................................
   1    0.000       0.000       0.000       0.000       0.000       0.000       0.000       0.000       0.000       0.000    
   2    0.000       0.000       0.000       0.000       0.000       0.000       0.000       0.000       0.000       0.000    
   3    0.000       0.000       0.000       0.000       0.000       0.000       0.000       0.000       0.000       0.000    
   4    0.000       0.000       0.000       0.000       0.000       0.000       0.000       0.000       0.000       0.000    
   5    0.000       0.000       0.000       0.000       0.000       0.000       0.000       0.000       0.000       0.000    
   6    0.000       0.000       0.000       0.000       0.000       0.000       0.000       0.000       0.000       0.000    
   7    0.000       0.000       0.000       0.000       0.000       0.000       0.000       0.000       0.000       0.000    
   8    0.000       0.000       0.000       0.000       0.000       0.000       0.000       0.000       0.000       0.000    
   9    0.000       0.000       0.000       0.000       0.000       0.000       0.000       0.000       0.000       0.000    
  10    0.000       0.000       0.000       0.000       0.000       0.000       0.000       0.000       0.000       0.000    
1
  PRECONSOL STRESS IN LAYER   1 AT END OF TIME STEP   1 IN STRESS PERIOD    1
  ---------------------------------------------------------------------------

            1           2           3           4           5           6           7           8           9          10
 ........................................................................................................................
   1    0.000       0.000       0.000       0.000       0.000       0.000       0.000       0.000       0.000       0.000    
   2    0.000       53.50       53.50       53.50       53.50       53.50       53.50       53.50       53.50       0.000    
   3    0.000       53.50       53.50       53.50       53.50       53.50       53.50       53.50       53.50       0.000    
   4    0.000       53.50       53.50       53.50       53.50       53.50       53.50       53.50       53.50       0.000    
   5    0.000       53.50       53.50       53.50       53.50       53.50       53.50       53.50       53.50       0.000    
   6    0.000       53.50       53.50       53.50       53.50       53.50       53.50       53.50       53.50       0.000    
   7    0.000       53.50       53.50       53.50       53.50       53.50       53.50       53.50       53.50       0.000    
   8    0.000       53.50       53.50       53.50       53.50       53.50       53.50       53.50       53.50       0.000    
   9    0.000       53.50       53.50       53.50       53.50       53.50       53.50       53.50       53.50       0.000    
  10    0.000       0.000       0.000       0.000       0.000       0.000       0.000       0.000       0.000       0.000    
1
  PRECONSOL STRESS IN LAYER   2 AT END OF TIME STEP   1 IN STRESS PERIOD    1
  ---------------------------------------------------------------------------

            1           2           3           4           5           6           7           8           9          10
 ........................................................................................................................
   1    0.000       0.000       0.000       0.000       0.000       0.000       0.000       0.000       0.000       0.000    
   2    0.000       103.5       103.5       103.5       103.5       103.5       103.5       103.5       103.5       0.000    
   3    0.000       103.5       103.5       103.5       103.5       103.5       103.5       103.5       103.5       0.000    
   4    0.000       103.5       103.5       103.5       103.5       103.5       103.5       103.5       103.5       0.000    
   5    0.000       103.5       103.5       103.5       103.5       103.5       103.5       103.5       103.5       0.000    
   6    0.000       103.5       103.5       103.5       103.5       103.5       103.5       103.5       103.5       0.000    
   7    0.000       103.5       103.5       103.5       103.5       103.5       103.5       103.5       103.5       0.000    
   8    0.000       103.5       103.5       103.5       103.5       103.5       103.5       103.5       103.5       0.000    
   9    0.000       103.5       103.5       103.5       103.5       103.5       103.5       103.5       103.5       0.000    
  10    0.000       0.000       0.000       0.000       0.000       0.000       0.000       0.000       0.000       0.000    
1
  PRECONSOL STRESS IN LAYER   3 AT END OF TIME STEP   1 IN STRESS PERIOD    1
  ---------------------------------------------------------------------------

            1           2           3           4           5           6           7           8           9          10
 ........................................................................................................................
   1    0.000       0.000       0.000       0.000       0.000       0.000       0.000       0.000       0.000       0.000    
   2    0.000       153.5       153.5       153.5       153.5       153.5       153.5       153.5       153.5       0.000    
   3    0.000       153.5       153.5       153.5       153.5       153.5       153.5       153.5       153.5       0.000    
   4    0.000       153.5       153.5       153.5       153.5       153.5       153.5       153.5       153.5       0.000    
   5    0.000       153.5       153.5       153.5       153.5       153.5       153.5       153.5       153.5       0.000    
   6    0.000       153.5       153.5       153.5       153.5       153.5       153.5       153.5       153.5       0.000    
   7    0.000       153.5       153.5       153.5       153.5       153.5       153.5       153.5       153.5       0.000    
   8    0.000       153.5       153.5       153.5       153.5       153.5       153.5       153.5       153.5       0.000    
   9    0.000       153.5       153.5       153.5       153.5       153.5       153.5       153.5       153.5       0.000    
  10    0.000       0.000       0.000       0.000       0.000       0.000       0.000       0.000       0.000       0.000    
1
  CHANGE IN PCSTRS IN LAYER   1 AT END OF TIME STEP   1 IN STRESS PERIOD    1
  ---------------------------------------------------------------------------

            1           2           3           4           5           6           7           8           9          10
 ........................................................................................................................
   1    0.000       0.000       0.000       0.000       0.000       0.000       0.000       0.000       0.000       0.000    
   2    0.000       53.50       53.50       53.50       53.50       53.50       53.50       53.50       53.50       0.000    
   3    0.000       53.50       53.50       53.50       53.50       53.50       53.50       53.50       53.50       0.000    
   4    0.000       53.50       53.50       53.50       53.50       53.50       53.50       53.50       53.50       0.000    
   5    0.000       53.50       53.50       53.50       53.50       53.50       53.50       53.50       53.50       0.000    
   6    0.000       53.50       53.50       53.50       53.50       53.50       53.50       53.50       53.50       0.000    
   7    0.000       53.50       53.50       53.50       53.50       53.50       53.50       53.50       53.50       0.000    
   8    0.000       53.50       53.50       53.50       53.50       53.50       53.50       53.50       53.50       0.000    
   9    0.000       53.50       53.50       53.50       53.50       53.50       53.50       53.50       53.50       0.000    
  10    0.000       0.000       0.000       0.000       0.000       0.000       0.000       0.000       0.000       0.000    
1
  CHANGE IN PCSTRS IN LAYER   2 AT END OF TIME STEP   1 IN STRESS PERIOD    1
  ---------------------------------------------------------------------------

            1           2           3           4           5           6           7           8           9          10
 ........................................................................................................................
   1    0.000       0.000       0.000       0.000       0.000       0.000       0.000       0.000       0.000       0.000    
   2    0.000       103.5       103.5       103.5       103.5       103.5       103.5       103.5       103.5       0.000    
   3    0.000       103.5       103.5       103.5       103.5       103.5       103.5       103.5       103.5       0.000    
   4    0.000       103.5       103.5       103.5       103.5       103.5       103.5       103.5       103.5       0.000    
   5    0.000       103.5       103.5       103.5       103.5       103.5       103.5       103.5       103.5       0.000    
   6    0.000       103.5       103.5       103.5       103.5       103.5       103.5       103.5       103.5       0.000    
   7    0.000       103.5       103.5       103.5       103.5       103.5       103.5       103.5       103.5       0.000    
   8    0.000       103.5       103.5       103.5       103.5       103.5       103.5       103.5       103.5       0.000    
   9    0.000       103.5       103.5       103.5       103.5       103.5       103.5       103.5       103.5       0.000    
  10    0.000       0.000       0.000       0.000       0.000       0.000       0.000       0.000       0.000       0.000    
1
  CHANGE IN PCSTRS IN LAYER   3 AT END OF TIME STEP   1 IN STRESS PERIOD    1
  ---------------------------------------------------------------------------

            1           2           3           4           5           6           7           8           9          10
 ........................................................................................................................
   1    0.000       0.000       0.000       0.000       0.000       0.000       0.000       0.000       0.000       0.000    
   2    0.000       153.5       153.5       153.5       153.5       153.5       153.5       153.5       153.5       0.000    
   3    0.000       153.5       153.5       153.5       153.5       153.5       153.5       153.5       153.5       0.000    
   4    0.000       153.5       153.5       153.5       153.5       153.5       153.5       153.5       153.5       0.000    
   5    0.000       153.5       153.5       153.5       153.5       153.5       153.5       153.5       153.5       0.000    
   6    0.000       153.5       153.5       153.5       153.5       153.5       153.5       153.5       153.5       0.000    
   7    0.000       153.5       153.5       153.5       153.5       153.5       153.5       153.5       153.5       0.000    
   8    0.000       153.5       153.5       153.5       153.5       153.5       153.5       153.5       153.5       0.000    
   9    0.000       153.5       153.5       153.5       153.5       153.5       153.5       153.5       153.5       0.000    
  10    0.000       0.000       0.000       0.000       0.000       0.000       0.000       0.000       0.000       0.000    
1
  GEOSTATIC STRESS IN LAYER   1 AT END OF TIME STEP   1 IN STRESS PERIOD    1
  ---------------------------------------------------------------------------

            1           2           3           4           5           6           7           8           9          10
 ........................................................................................................................
   1    98.50       98.50       98.50       98.50       98.50       98.50       98.50       98.50       98.50       98.50    
   2    98.50       98.50       98.50       98.50       98.50       98.50       98.50       98.50       98.50       98.50    
   3    98.50       98.50       98.50       98.50       98.50       98.50       98.50       98.50       98.50       98.50    
   4    98.50       98.50       98.50       98.50       98.50       98.50       98.50       98.50       98.50       98.50    
   5    98.50       98.50       98.50       98.50       98.50       98.50       98.50       98.50       98.50       98.50    
   6    98.50       98.50       98.50       98.50       98.50       98.50       98.50       98.50       98.50       98.50    
   7    98.50       98.50       98.50       98.50       98.50       98.50       98.50       98.50       98.50       98.50    
   8    98.50       98.50       98.50       98.50       98.50       98.50       98.50       98.50       98.50       98.50    
   9    98.50       98.50       98.50       98.50       98.50       98.50       98.50       98.50       98.50       98.50    
  10    98.50       98.50       98.50       98.50       98.50       98.50       98.50       98.50       98.50       98.50    
1
  GEOSTATIC STRESS IN LAYER   2 AT END OF TIME STEP   1 IN STRESS PERIOD    1
  ---------------------------------------------------------------------------

            1           2           3           4           5           6           7           8           9          10
 ........................................................................................................................
   1    198.5       198.5       198.5       198.5       198.5       198.5       198.5       198.5       198.5       198.5    
   2    198.5       198.5       198.5       198.5       198.5       198.5       198.5       198.5       198.5       198.5    
   3    198.5       198.5       198.5       198.5       198.5       198.5       198.5       198.5       198.5       198.5    
   4    198.5       198.5       198.5       198.5       198.5       198.5       198.5       198.5       198.5       198.5    
   5    198.5       198.5       198.5       198.5       198.5       198.5       198.5       198.5       198.5       198.5    
   6    198.5       198.5       198.5       198.5       198.5       198.5       198.5       198.5       198.5       198.5    
   7    198.5       198.5       198.5       198.5       198.5       198.5       198.5       198.5       198.5       198.5    
   8    198.5       198.5       198.5       198.5       198.5       198.5       198.5       198.5       198.5       198.5    
   9    198.5       198.5       198.5       198.5       198.5       198.5       198.5       198.5       198.5       198.5    
  10    198.5       198.5       198.5       198.5       198.5       198.5       198.5       198.5       198.5       198.5    
1
  GEOSTATIC STRESS IN LAYER   3 AT END OF TIME STEP   1 IN STRESS PERIOD    1
  ---------------------------------------------------------------------------

            1           2           3           4           5           6           7           8           9          10
 ........................................................................................................................
   1    298.5       298.5       298.5       298.5       298.5       298.5       298.5       298.5       298.5       298.5    
   2    298.5       298.5       298.5       298.5       298.5       298.5       298.5       298.5       298.5       298.5    
   3    298.5       298.5       298.5       298.5       298.5       298.5       298.5       298.5       298.5       298.5    
   4    298.5       298.5       298.5       298.5       298.5       298.5       298.5       298.5       298.5       298.5    
   5    298.5       298.5       298.5       298.5       298.5       298.5       298.5       298.5       298.5       298.5    
   6    298.5       298.5       298.5       298.5       298.5       298.5       298.5       298.5       298.5       298.5    
   7    298.5       298.5       298.5       298.5       298.5       298.5       298.5       298.5       298.5       298.5    
   8    298.5       298.5       298.5       298.5       298.5       298.5       298.5       298.5       298.5       298.5    
   9    298.5       298.5       298.5       298.5       298.5       298.5       298.5       298.5       298.5       298.5    
  10    298.5       298.5       298.5       298.5       298.5       298.5       298.5       298.5       298.5       298.5    
1
  CHANGE IN G-STRS IN LAYER   1 AT END OF TIME STEP   1 IN STRESS PERIOD    1
  ---------------------------------------------------------------------------

            1           2           3           4           5           6           7           8           9          10
 ........................................................................................................................
   1    98.50       98.50       98.50       98.50       98.50       98.50       98.50       98.50       98.50       98.50    
   2    98.50       98.50       98.50       98.50       98.50       98.50       98.50       98.50       98.50       98.50    
   3    98.50       98.50       98.50       98.50       98.50       98.50       98.50       98.50       98.50       98.50    
   4    98.50       98.50       98.50       98.50       98.50       98.50       98.50       98.50       98.50       98.50    
   5    98.50       98.50       98.50       98.50       98.50       98.50       98.50       98.50       98.50       98.50    
   6    98.50       98.50       98.50       98.50       98.50       98.50       98.50       98.50       98.50       98.50    
   7    98.50       98.50       98.50       98.50       98.50       98.50       98.50       98.50       98.50       98.50    
   8    98.50       98.50       98.50       98.50       98.50       98.50       98.50       98.50       98.50       98.50    
   9    98.50       98.50       98.50       98.50       98.50       98.50       98.50       98.50       98.50       98.50    
  10    98.50       98.50       98.50       98.50       98.50       98.50       98.50       98.50       98.50       98.50    
1
  CHANGE IN G-STRS IN LAYER   2 AT END OF TIME STEP   1 IN STRESS PERIOD    1
  ---------------------------------------------------------------------------

            1           2           3           4           5           6           7           8           9          10
 ........................................................................................................................
   1    198.5       198.5       198.5       198.5       198.5       198.5       198.5       198.5       198.5       198.5    
   2    198.5       198.5       198.5       198.5       198.5       198.5       198.5       198.5       198.5       198.5    
   3    198.5       198.5       198.5       198.5       198.5       198.5       198.5       198.5       198.5       198.5    
   4    198.5       198.5       198.5       198.5       198.5       198.5       198.5       198.5       198.5       198.5    
   5    198.5       198.5       198.5       198.5       198.5       198.5       198.5       198.5       198.5       198.5    
   6    198.5       198.5       198.5       198.5       198.5       198.5       198.5       198.5       198.5       198.5    
   7    198.5       198.5       198.5       198.5       198.5       198.5       198.5       198.5       198.5       198.5    
   8    198.5       198.5       198.5       198.5       198.5       198.5       198.5       198.5       198.5       198.5    
   9    198.5       198.5       198.5       198.5       198.5       198.5       198.5       198.5       198.5       198.5    
  10    198.5       198.5       198.5       198.5       198.5       198.5       198.5       198.5       198.5       198.5    
1
  CHANGE IN G-STRS IN LAYER   3 AT END OF TIME STEP   1 IN STRESS PERIOD    1
  ---------------------------------------------------------------------------

            1           2           3           4           5           6           7           8           9          10
 ........................................................................................................................
   1    298.5       298.5       298.5       298.5       298.5       298.5       298.5       298.5       298.5       298.5    
   2    298.5       298.5       298.5       298.5       298.5       298.5       298.5       298.5       298.5       298.5    
   3    298.5       298.5       298.5       298.5       298.5       298.5       298.5       298.5       298.5       298.5    
   4    298.5       298.5       298.5       298.5       298.5       298.5       298.5       298.5       298.5       298.5    
   5    298.5       298.5       298.5       298.5       298.5       298.5       298.5       298.5       298.5       298.5    
   6    298.5       298.5       298.5       298.5       298.5       298.5       298.5       298.5       298.5       298.5    
   7    298.5       298.5       298.5       298.5       298.5       298.5       298.5       298.5       298.5       298.5    
   8    298.5       298.5       298.5       298.5       298.5       298.5       298.5       298.5       298.5       298.5    
   9    298.5       298.5       298.5       298.5       298.5       298.5       298.5       298.5       298.5       298.5    
  10    298.5       298.5       298.5       298.5       298.5       298.5       298.5       298.5       298.5       298.5    
1
  EFFECTIVE STRESS IN LAYER   1 AT END OF TIME STEP   1 IN STRESS PERIOD    1
  ---------------------------------------------------------------------------

            1           2           3           4           5           6           7           8           9          10
 ........................................................................................................................
   1    53.50       53.50       53.50       53.50       53.50       53.50       53.50       53.50       53.50       53.50    
   2    53.50       53.50       53.50       53.50       53.50       53.50       53.50       53.50       53.50       53.50    
   3    53.50       53.50       53.50       53.50       53.50       53.50       53.50       53.50       53.50       53.50    
   4    53.50       53.50       53.50       53.50       53.50       53.50       53.50       53.50       53.50       53.50    
   5    53.50       53.50       53.50       53.50       53.50       53.50       53.50       53.50       53.50       53.50    
   6    53.50       53.50       53.50       53.50       53.50       53.50       53.50       53.50       53.50       53.50    
   7    53.50       53.50       53.50       53.50       53.50       53.50       53.50       53.50       53.50       53.50    
   8    53.50       53.50       53.50       53.50       53.50       53.50       53.50       53.50       53.50       53.50    
   9    53.50       53.50       53.50       53.50       53.50       53.50       53.50       53.50       53.50       53.50    
  10    53.50       53.50       53.50       53.50       53.50       53.50       53.50       53.50       53.50       53.50    
1
  EFFECTIVE STRESS IN LAYER   2 AT END OF TIME STEP   1 IN STRESS PERIOD    1
  ---------------------------------------------------------------------------

            1           2           3           4           5           6           7           8           9          10
 ........................................................................................................................
   1    103.5       103.5       103.5       103.5       103.5       103.5       103.5       103.5       103.5       103.5    
   2    103.5       103.5       103.5       103.5       103.5       103.5       103.5       103.5       103.5       103.5    
   3    103.5       103.5       103.5       103.5       103.5       103.5       103.5       103.5       103.5       103.5    
   4    103.5       103.5       103.5       103.5       103.5       103.5       103.5       103.5       103.5       103.5    
   5    103.5       103.5       103.5       103.5       103.5       103.5       103.5       103.5       103.5       103.5    
   6    103.5       103.5       103.5       103.5       103.5       103.5       103.5       103.5       103.5       103.5    
   7    103.5       103.5       103.5       103.5       103.5       103.5       103.5       103.5       103.5       103.5    
   8    103.5       103.5       103.5       103.5       103.5       103.5       103.5       103.5       103.5       103.5    
   9    103.5       103.5       103.5       103.5       103.5       103.5       103.5       103.5       103.5       103.5    
  10    103.5       103.5       103.5       103.5       103.5       103.5       103.5       103.5       103.5       103.5    
1
  EFFECTIVE STRESS IN LAYER   3 AT END OF TIME STEP   1 IN STRESS PERIOD    1
  ---------------------------------------------------------------------------

            1           2           3           4           5           6           7           8           9          10
 ........................................................................................................................
   1    153.5       153.5       153.5       153.5       153.5       153.5       153.5       153.5       153.5       153.5    
   2    153.5       153.5       153.5       153.5       153.5       153.5       153.5       153.5       153.5       153.5    
   3    153.5       153.5       153.5       153.5       153.5       153.5       153.5       153.5       153.5       153.5    
   4    153.5       153.5       153.5       153.5       153.5       153.5       153.5       153.5       153.5       153.5    
   5    153.5       153.5       153.5       153.5       153.5       153.5       153.5       153.5       153.5       153.5    
   6    153.5       153.5       153.5       153.5       153.5       153.5       153.5       153.5       153.5       153.5    
   7    153.5       153.5       153.5       153.5       153.5       153.5       153.5       153.5       153.5       153.5    
   8    153.5       153.5       153.5       153.5       153.5       153.5       153.5       153.5       153.5       153.5    
   9    153.5       153.5       153.5       153.5       153.5       153.5       153.5       153.5       153.5       153.5    
  10    153.5       153.5       153.5       153.5       153.5       153.5       153.5       153.5       153.5       153.5    
1
  CHANGE IN EFF-ST IN LAYER   1 AT END OF TIME STEP   1 IN STRESS PERIOD    1
  ---------------------------------------------------------------------------

            1           2           3           4           5           6           7           8           9          10
 ........................................................................................................................
   1    53.50       53.50       53.50       53.50       53.50       53.50       53.50       53.50       53.50       53.50    
   2    53.50       53.50       53.50       53.50       53.50       53.50       53.50       53.50       53.50       53.50    
   3    53.50       53.50       53.50       53.50       53.50       53.50       53.50       53.50       53.50       53.50    
   4    53.50       53.50       53.50       53.50       53.50       53.50       53.50       53.50       53.50       53.50    
   5    53.50       53.50       53.50       53.50       53.50       53.50       53.50       53.50       53.50       53.50    
   6    53.50       53.50       53.50       53.50       53.50       53.50       53.50       53.50       53.50       53.50    
   7    53.50       53.50       53.50       53.50       53.50       53.50       53.50       53.50       53.50       53.50    
   8    53.50       53.50       53.50       53.50       53.50       53.50       53.50       53.50       53.50       53.50    
   9    53.50       53.50       53.50       53.50       53.50       53.50       53.50       53.50       53.50       53.50    
  10    53.50       53.50       53.50       53.50       53.50       53.50       53.50       53.50       53.50       53.50    
1
  CHANGE IN EFF-ST IN LAYER   2 AT END OF TIME STEP   1 IN STRESS PERIOD    1
  ---------------------------------------------------------------------------

            1           2           3           4           5           6           7           8           9          10
 ........................................................................................................................
   1    103.5       103.5       103.5       103.5       103.5       103.5       103.5       103.5       103.5       103.5    
   2    103.5       103.5       103.5       103.5       103.5       103.5       103.5       103.5       103.5       103.5    
   3    103.5       103.5       103.5       103.5       103.5       103.5       103.5       103.5       103.5       103.5    
   4    103.5       103.5       103.5       103.5       103.5       103.5       103.5       103.5       103.5       103.5    
   5    103.5       103.5       103.5       103.5       103.5       103.5       103.5       103.5       103.5       103.5    
   6    103.5       103.5       103.5       103.5       103.5       103.5       103.5       103.5       103.5       103.5    
   7    103.5       103.5       103.5       103.5       103.5       103.5       103.5       103.5       103.5       103.5    
   8    103.5       103.5       103.5       103.5       103.5       103.5       103.5       103.5       103.5       103.5    
   9    103.5       103.5       103.5       103.5       103.5       103.5       103.5       103.5       103.5       103.5    
  10    103.5       103.5       103.5       103.5       103.5       103.5       103.5       103.5       103.5       103.5    
1
  CHANGE IN EFF-ST IN LAYER   3 AT END OF TIME STEP   1 IN STRESS PERIOD    1
  ---------------------------------------------------------------------------

            1           2           3           4           5           6           7           8           9          10
 ........................................................................................................................
   1    153.5       153.5       153.5       153.5       153.5       153.5       153.5       153.5       153.5       153.5    
   2    153.5       153.5       153.5       153.5       153.5       153.5       153.5       153.5       153.5       153.5    
   3    153.5       153.5       153.5       153.5       153.5       153.5       153.5       153.5       153.5       153.5    
   4    153.5       153.5       153.5       153.5       153.5       153.5       153.5       153.5       153.5       153.5    
   5    153.5       153.5       153.5       153.5       153.5       153.5       153.5       153.5       153.5       153.5    
   6    153.5       153.5       153.5       153.5       153.5       153.5       153.5       153.5       153.5       153.5    
   7    153.5       153.5       153.5       153.5       153.5       153.5       153.5       153.5       153.5       153.5    
   8    153.5       153.5       153.5       153.5       153.5       153.5       153.5       153.5       153.5       153.5    
   9    153.5       153.5       153.5       153.5       153.5       153.5       153.5       153.5       153.5       153.5    
  10    153.5       153.5       153.5       153.5       153.5       153.5       153.5       153.5       153.5       153.5    

  SYSTEM   1 OF SUBWT INTERBEDS:
1
        VOID RATIO IN LAYER   1 AT END OF TIME STEP   1 IN STRESS PERIOD    1
  ---------------------------------------------------------------------------

            1           2           3           4           5           6           7           8           9          10
 ........................................................................................................................
   1   0.8200      0.8200      0.8200      0.8200      0.8200      0.8200      0.8200      0.8200      0.8200      0.8200    
   2   0.8200      0.8200      0.8200      0.8200      0.8200      0.8200      0.8200      0.8200      0.8200      0.8200    
   3   0.8200      0.8200      0.8200      0.8200      0.8200      0.8200      0.8200      0.8200      0.8200      0.8200    
   4   0.8200      0.8200      0.8200      0.8200      0.8200      0.8200      0.8200      0.8200      0.8200      0.8200    
   5   0.8200      0.8200      0.8200      0.8200      0.8200      0.8200      0.8200      0.8200      0.8200      0.8200    
   6   0.8200      0.8200      0.8200      0.8200      0.8200      0.8200      0.8200      0.8200      0.8200      0.8200    
   7   0.8200      0.8200      0.8200      0.8200      0.8200      0.8200      0.8200      0.8200      0.8200      0.8200    
   8   0.8200      0.8200      0.8200      0.8200      0.8200      0.8200      0.8200      0.8200      0.8200      0.8200    
   9   0.8200      0.8200      0.8200      0.8200      0.8200      0.8200      0.8200      0.8200      0.8200      0.8200    
  10   0.8200      0.8200      0.8200      0.8200      0.8200      0.8200      0.8200      0.8200      0.8200      0.8200    

  SYSTEM   2 OF SUBWT INTERBEDS:
1
        VOID RATIO IN LAYER   2 AT END OF TIME STEP   1 IN STRESS PERIOD    1
  ---------------------------------------------------------------------------

            1           2           3           4           5           6           7           8           9          10
 ........................................................................................................................
   1   0.8200      0.8200      0.8200      0.8200      0.8200      0.8200      0.8200      0.8200      0.8200      0.8200    
   2   0.8200      0.8200      0.8200      0.8200      0.8200      0.8200      0.8200      0.8200      0.8200      0.8200    
   3   0.8200      0.8200      0.8200      0.8200      0.8200      0.8200      0.8200      0.8200      0.8200      0.8200    
   4   0.8200      0.8200      0.8200      0.8200      0.8200      0.8200      0.8200      0.8200      0.8200      0.8200    
   5   0.8200      0.8200      0.8200      0.8200      0.8200      0.8200      0.8200      0.8200      0.8200      0.8200    
   6   0.8200      0.8200      0.8200      0.8200      0.8200      0.8200      0.8200      0.8200      0.8200      0.8200    
   7   0.8200      0.8200      0.8200      0.8200      0.8200      0.8200      0.8200      0.8200      0.8200      0.8200    
   8   0.8200      0.8200      0.8200      0.8200      0.8200      0.8200      0.8200      0.8200      0.8200      0.8200    
   9   0.8200      0.8200      0.8200      0.8200      0.8200      0.8200      0.8200      0.8200      0.8200      0.8200    
  10   0.8200      0.8200      0.8200      0.8200      0.8200      0.8200      0.8200      0.8200      0.8200      0.8200    

  SYSTEM   3 OF SUBWT INTERBEDS:
1
        VOID RATIO IN LAYER   3 AT END OF TIME STEP   1 IN STRESS PERIOD    1
  ---------------------------------------------------------------------------

            1           2           3           4           5           6           7           8           9          10
 ........................................................................................................................
   1   0.8200      0.8200      0.8200      0.8200      0.8200      0.8200      0.8200      0.8200      0.8200      0.8200    
   2   0.8200      0.8200      0.8200      0.8200      0.8200      0.8200      0.8200      0.8200      0.8200      0.8200    
   3   0.8200      0.8200      0.8200      0.8200      0.8200      0.8200      0.8200      0.8200      0.8200      0.8200    
   4   0.8200      0.8200      0.8200      0.8200      0.8200      0.8200      0.8200      0.8200      0.8200      0.8200    
   5   0.8200      0.8200      0.8200      0.8200      0.8200      0.8200      0.8200      0.8200      0.8200      0.8200    
   6   0.8200      0.8200      0.8200      0.8200      0.8200      0.8200      0.8200      0.8200      0.8200      0.8200    
   7   0.8200      0.8200      0.8200      0.8200      0.8200      0.8200      0.8200      0.8200      0.8200      0.8200    
   8   0.8200      0.8200      0.8200      0.8200      0.8200      0.8200      0.8200      0.8200      0.8200      0.8200    
   9   0.8200      0.8200      0.8200      0.8200      0.8200      0.8200      0.8200      0.8200      0.8200      0.8200    
  10   0.8200      0.8200      0.8200      0.8200      0.8200      0.8200      0.8200      0.8200      0.8200      0.8200    

  SYSTEM   1 OF SUBWT INTERBEDS:
1
         THICKNESS IN LAYER   1 AT END OF TIME STEP   1 IN STRESS PERIOD    1
  ---------------------------------------------------------------------------

            1           2           3           4           5           6           7           8           9          10
 ........................................................................................................................
   1    10.00       10.00       10.00       10.00       10.00       10.00       10.00       10.00       10.00       10.00    
   2    10.00       10.00       10.00       10.00       10.00       10.00       10.00       10.00       10.00       10.00    
   3    10.00       10.00       10.00       10.00       10.00       10.00       10.00       10.00       10.00       10.00    
   4    10.00       10.00       10.00       10.00       10.00       10.00       10.00       10.00       10.00       10.00    
   5    10.00       10.00       10.00       10.00       10.00       10.00       10.00       10.00       10.00       10.00    
   6    10.00       10.00       10.00       10.00       10.00       10.00       10.00       10.00       10.00       10.00    
   7    10.00       10.00       10.00       10.00       10.00       10.00       10.00       10.00       10.00       10.00    
   8    10.00       10.00       10.00       10.00       10.00       10.00       10.00       10.00       10.00       10.00    
   9    10.00       10.00       10.00       10.00       10.00       10.00       10.00       10.00       10.00       10.00    
  10    10.00       10.00       10.00       10.00       10.00       10.00       10.00       10.00       10.00       10.00    

  SYSTEM   2 OF SUBWT INTERBEDS:
1
         THICKNESS IN LAYER   2 AT END OF TIME STEP   1 IN STRESS PERIOD    1
  ---------------------------------------------------------------------------

            1           2           3           4           5           6           7           8           9          10
 ........................................................................................................................
   1    15.00       15.00       15.00       15.00       15.00       15.00       15.00       15.00       15.00       15.00    
   2    15.00       15.00       15.00       15.00       15.00       15.00       15.00       15.00       15.00       15.00    
   3    15.00       15.00       15.00       15.00       15.00       15.00       15.00       15.00       15.00       15.00    
   4    15.00       15.00       15.00       15.00       15.00       15.00       15.00       15.00       15.00       15.00    
   5    15.00       15.00       15.00       15.00       15.00       15.00       15.00       15.00       15.00       15.00    
   6    15.00       15.00       15.00       15.00       15.00       15.00       15.00       15.00       15.00       15.00    
   7    15.00       15.00       15.00       15.00       15.00       15.00       15.00       15.00       15.00       15.00    
   8    15.00       15.00       15.00       15.00       15.00       15.00       15.00       15.00       15.00       15.00    
   9    15.00       15.00       15.00       15.00       15.00       15.00       15.00       15.00       15.00       15.00    
  10    15.00       15.00       15.00       15.00       15.00       15.00       15.00       15.00       15.00       15.00    

  SYSTEM   3 OF SUBWT INTERBEDS:
1
         THICKNESS IN LAYER   3 AT END OF TIME STEP   1 IN STRESS PERIOD    1
  ---------------------------------------------------------------------------

            1           2           3           4           5           6           7           8           9          10
 ........................................................................................................................
   1    10.00       10.00       10.00       10.00       10.00       10.00       10.00       10.00       10.00       10.00    
   2    10.00       10.00       10.00       10.00       10.00       10.00       10.00       10.00       10.00       10.00    
   3    10.00       10.00       10.00       10.00       10.00       10.00       10.00       10.00       10.00       10.00    
   4    10.00       10.00       10.00       10.00       10.00       10.00       10.00       10.00       10.00       10.00    
   5    10.00       10.00       10.00       10.00       10.00       10.00       10.00       10.00       10.00       10.00    
   6    10.00       10.00       10.00       10.00       10.00       10.00       10.00       10.00       10.00       10.00    
   7    10.00       10.00       10.00       10.00       10.00       10.00       10.00       10.00       10.00       10.00    
   8    10.00       10.00       10.00       10.00       10.00       10.00       10.00       10.00       10.00       10.00    
   9    10.00       10.00       10.00       10.00       10.00       10.00       10.00       10.00       10.00       10.00    
  10    10.00       10.00       10.00       10.00       10.00       10.00       10.00       10.00       10.00       10.00    
1
  CENTER ELEVATION IN LAYER   1 AT END OF TIME STEP   1 IN STRESS PERIOD    1
  ---------------------------------------------------------------------------

            1           2           3           4           5           6           7           8           9          10
 ........................................................................................................................
   1    22.50       22.50       22.50       22.50       22.50       22.50       22.50       22.50       22.50       22.50    
   2    22.50       22.50       22.50       22.50       22.50       22.50       22.50       22.50       22.50       22.50    
   3    22.50       22.50       22.50       22.50       22.50       22.50       22.50       22.50       22.50       22.50    
   4    22.50       22.50       22.50       22.50       22.50       22.50       22.50       22.50       22.50       22.50    
   5    22.50       22.50       22.50       22.50       22.50       22.50       22.50       22.50       22.50       22.50    
   6    22.50       22.50       22.50       22.50       22.50       22.50       22.50       22.50       22.50       22.50    
   7    22.50       22.50       22.50       22.50       22.50       22.50       22.50       22.50       22.50       22.50    
   8    22.50       22.50       22.50       22.50       22.50       22.50       22.50       22.50       22.50       22.50    
   9    22.50       22.50       22.50       22.50       22.50       22.50       22.50       22.50       22.50       22.50    
  10    22.50       22.50       22.50       22.50       22.50       22.50       22.50       22.50       22.50       22.50    
1
  CENTER ELEVATION IN LAYER   2 AT END OF TIME STEP   1 IN STRESS PERIOD    1
  ---------------------------------------------------------------------------

            1           2           3           4           5           6           7           8           9          10
 ........................................................................................................................
   1   -25.00      -25.00      -25.00      -25.00      -25.00      -25.00      -25.00      -25.00      -25.00      -25.00    
   2   -25.00      -25.00      -25.00      -25.00      -25.00      -25.00      -25.00      -25.00      -25.00      -25.00    
   3   -25.00      -25.00      -25.00      -25.00      -25.00      -25.00      -25.00      -25.00      -25.00      -25.00    
   4   -25.00      -25.00      -25.00      -25.00      -25.00      -25.00      -25.00      -25.00      -25.00      -25.00    
   5   -25.00      -25.00      -25.00      -25.00      -25.00      -25.00      -25.00      -25.00      -25.00      -25.00    
   6   -25.00      -25.00      -25.00      -25.00      -25.00      -25.00      -25.00      -25.00      -25.00      -25.00    
   7   -25.00      -25.00      -25.00      -25.00      -25.00      -25.00      -25.00      -25.00      -25.00      -25.00    
   8   -25.00      -25.00      -25.00      -25.00      -25.00      -25.00      -25.00      -25.00      -25.00      -25.00    
   9   -25.00      -25.00      -25.00      -25.00      -25.00      -25.00      -25.00      -25.00      -25.00      -25.00    
  10   -25.00      -25.00      -25.00      -25.00      -25.00      -25.00      -25.00      -25.00      -25.00      -25.00    
1
  CENTER ELEVATION IN LAYER   3 AT END OF TIME STEP   1 IN STRESS PERIOD    1
  ---------------------------------------------------------------------------

            1           2           3           4           5           6           7           8           9          10
 ........................................................................................................................
   1   -75.00      -75.00      -75.00      -75.00      -75.00      -75.00      -75.00      -75.00      -75.00      -75.00    
   2   -75.00      -75.00      -75.00      -75.00      -75.00      -75.00      -75.00      -75.00      -75.00      -75.00    
   3   -75.00      -75.00      -75.00      -75.00      -75.00      -75.00      -75.00      -75.00      -75.00      -75.00    
   4   -75.00      -75.00      -75.00      -75.00      -75.00      -75.00      -75.00      -75.00      -75.00      -75.00    
   5   -75.00      -75.00      -75.00      -75.00      -75.00      -75.00      -75.00      -75.00      -75.00      -75.00    
   6   -75.00      -75.00      -75.00      -75.00      -75.00      -75.00      -75.00      -75.00      -75.00      -75.00    
   7   -75.00      -75.00      -75.00      -75.00      -75.00      -75.00      -75.00      -75.00      -75.00      -75.00    
   8   -75.00      -75.00      -75.00      -75.00      -75.00      -75.00      -75.00      -75.00      -75.00      -75.00    
   9   -75.00      -75.00      -75.00      -75.00      -75.00      -75.00      -75.00      -75.00      -75.00      -75.00    
  10   -75.00      -75.00      -75.00      -75.00      -75.00      -75.00      -75.00      -75.00      -75.00      -75.00    
1
                            STRESS PERIOD NO.    2, LENGTH =   365.0000    
                            -----------------------------------------------

                              NUMBER OF TIME STEPS =    10

                               MULTIPLIER FOR DELT =     1.000

                            INITIAL TIME STEP SIZE =   36.50000    

 WELL NO.  LAYER   ROW   COL   STRESS RATE         
 --------------------------------------------------
      1      2      6      6      -500.0    

      1 WELL 
 
 SOLVING FOR HEAD 

 OUTPUT CONTROL FOR STRESS PERIOD    2   TIME STEP    1
    SAVE HEAD FOR ALL LAYERS
    SAVE BUDGET

 HEAD WILL BE SAVED ON UNIT   51 AT END OF TIME STEP    1, STRESS PERIOD    2
 The following subsidence array is the sum of compaction values for all systems of interbeds:
1
        SUBSIDENCE IN LAYER   1 AT END OF TIME STEP   1 IN STRESS PERIOD    2
  ---------------------------------------------------------------------------

            1           2           3           4           5           6           7           8           9          10
 ........................................................................................................................
   1    0.000       0.000       0.000       0.000       0.000       0.000       0.000       0.000       0.000       0.000    
   2    0.000      3.6161E-07  7.3020E-07  1.0867E-06  1.3711E-06  1.4752E-06  1.3012E-06  9.3235E-07  4.7488E-07   0.000    
   3    0.000      7.3020E-07  1.4942E-06  2.2787E-06  2.9618E-06  3.2615E-06  2.8223E-06  1.9735E-06  9.9990E-07   0.000    
   4    0.000      1.0867E-06  2.2787E-06  3.6385E-06  5.0459E-06  5.9105E-06  4.8317E-06  3.1894E-06  1.5664E-06   0.000    
   5    0.000      1.3711E-06  2.9618E-06  5.0459E-06  7.8173E-06  1.0696E-05  7.5501E-06  4.5352E-06  2.1070E-06   0.000    
   6    0.000      1.4752E-06  3.2615E-06  5.9105E-06  1.0696E-05  2.1797E-05  1.0448E-05  5.3880E-06  2.3565E-06   0.000    
   7    0.000      1.3012E-06  2.8223E-06  4.8317E-06  7.5501E-06  1.0448E-05  7.3327E-06  4.3468E-06  1.9964E-06   0.000    
   8    0.000      9.3235E-07  1.9735E-06  3.1894E-06  4.5352E-06  5.3880E-06  4.3468E-06  2.8163E-06  1.3507E-06   0.000    
   9    0.000      4.7488E-07  9.9990E-07  1.5664E-06  2.1070E-06  2.3565E-06  1.9964E-06  1.3507E-06  6.6374E-07   0.000    
  10    0.000       0.000       0.000       0.000       0.000       0.000       0.000       0.000       0.000       0.000    

  SYSTEM   1 OF SUBWT INTERBEDS:
1
  SYSTM COMPACTION IN LAYER   1 AT END OF TIME STEP   1 IN STRESS PERIOD    2
  ---------------------------------------------------------------------------

            1           2           3           4           5           6           7           8           9          10
 ........................................................................................................................
   1    0.000       0.000       0.000       0.000       0.000       0.000       0.000       0.000       0.000       0.000    
   2    0.000      7.3510E-08  1.4490E-07  2.0751E-07  2.5181E-07  2.6450E-07  2.3627E-07  1.7487E-07  9.1124E-08   0.000    
   3    0.000      1.4490E-07  2.8587E-07  4.1416E-07  5.0757E-07  5.3621E-07  4.7728E-07  3.5086E-07  1.8390E-07   0.000    
[...]
 ........................................................................................................................
   1    0.000       0.000       0.000       0.000       0.000       0.000       0.000       0.000       0.000       0.000    
   2    0.000      1.3771E-03  2.6932E-03  3.8223E-03  4.5815E-03  4.7646E-03  4.2343E-03  3.1204E-03  1.6479E-03   0.000    
   3    0.000      2.6932E-03  5.2795E-03  7.5493E-03  9.1553E-03  9.5863E-03  8.4991E-03  6.2218E-03  3.2539E-03   0.000    
   4    0.000      3.8223E-03  7.5493E-03  1.0971E-02  1.3565E-02  1.4427E-02  1.2657E-02  9.1248E-03  4.7226E-03   0.000    
   5    0.000      4.5815E-03  9.1553E-03  1.3565E-02  1.7269E-02  1.8929E-02  1.6209E-02  1.1406E-02  5.8212E-03   0.000    
   6    0.000      4.7646E-03  9.5863E-03  1.4427E-02  1.8929E-02  2.1816E-02  1.7853E-02  1.2226E-02  6.1569E-03   0.000    
   7    0.000      4.2343E-03  8.4991E-03  1.2657E-02  1.6209E-02  1.7853E-02  1.5251E-02  1.0693E-02  5.4359E-03   0.000    
   8    0.000      3.1204E-03  6.2218E-03  9.1248E-03  1.1406E-02  1.2226E-02  1.0693E-02  7.6637E-03  3.9444E-03   0.000    
   9    0.000      1.6479E-03  3.2539E-03  4.7226E-03  5.8212E-03  6.1569E-03  5.4359E-03  3.9444E-03  2.0523E-03   0.000    
  10    0.000       0.000       0.000       0.000       0.000       0.000       0.000       0.000       0.000       0.000    
1
  CHANGE IN EFF-ST IN LAYER   2 AT END OF TIME STEP  10 IN STRESS PERIOD    2
  ---------------------------------------------------------------------------

            1           2           3           4           5           6           7           8           9          10
 ........................................................................................................................
   1    0.000       0.000       0.000       0.000       0.000       0.000       0.000       0.000       0.000       0.000    
   2    0.000      5.7068E-03  1.1642E-02  1.7609E-02  2.2568E-02  2.4460E-02  2.1454E-02  1.5244E-02  7.7820E-03   0.000    
   3    0.000      1.1642E-02  2.4139E-02  3.7552E-02  4.9942E-02  5.5756E-02  4.7791E-02  3.2944E-02  1.6434E-02   0.000    
   4    0.000      1.7609E-02  3.7552E-02  6.1478E-02  8.7860E-02  0.1054      8.4808E-02  5.4901E-02  2.6337E-02   0.000    
   5    0.000      2.2568E-02  4.9942E-02  8.7860E-02  0.1419      0.2019      0.1382      7.9926E-02  3.6102E-02   0.000    
   6    0.000      2.4460E-02  5.5756E-02  0.1054      0.2019      0.4400      0.1982      9.7122E-02  4.1153E-02   0.000    
   7    0.000      2.1454E-02  4.7791E-02  8.4808E-02  0.1382      0.1982      0.1349      7.7454E-02  3.4790E-02   0.000    
   8    0.000      1.5244E-02  3.2944E-02  5.4901E-02  7.9926E-02  9.7122E-02  7.7454E-02  4.9438E-02  2.3453E-02   0.000    
   9    0.000      7.7820E-03  1.6434E-02  2.6337E-02  3.6102E-02  4.1153E-02  3.4790E-02  2.3453E-02  1.1490E-02   0.000    
  10    0.000       0.000       0.000       0.000       0.000       0.000       0.000       0.000       0.000       0.000    
1
  CHANGE IN EFF-ST IN LAYER   3 AT END OF TIME STEP  10 IN STRESS PERIOD    2
  ---------------------------------------------------------------------------

            1           2           3           4           5           6           7           8           9          10
 ........................................................................................................................
   1    0.000       0.000       0.000       0.000       0.000       0.000       0.000       0.000       0.000       0.000    
   2    0.000      1.1292E-03  2.2278E-03  3.1433E-03  3.7994E-03  3.9368E-03  3.4790E-03  2.5787E-03  1.3733E-03   0.000    
   3    0.000      2.2278E-03  4.3793E-03  6.2561E-03  7.5836E-03  7.9041E-03  7.0190E-03  5.1422E-03  2.6855E-03   0.000    
   4    0.000      3.1433E-03  6.2561E-03  9.0637E-03  1.1185E-02  1.1856E-02  1.0406E-02  7.5226E-03  3.9062E-03   0.000    
   5    0.000      3.7994E-03  7.5836E-03  1.1185E-02  1.4191E-02  1.5503E-02  1.3290E-02  9.3842E-03  4.7913E-03   0.000    
   6    0.000      3.9368E-03  7.9041E-03  1.1856E-02  1.5503E-02  1.7822E-02  1.4603E-02  1.0025E-02  5.0812E-03   0.000    
   7    0.000      3.4790E-03  7.0190E-03  1.0406E-02  1.3290E-02  1.4603E-02  1.2512E-02  8.7891E-03  4.4861E-03   0.000    
   8    0.000      2.5787E-03  5.1422E-03  7.5226E-03  9.3842E-03  1.0025E-02  8.7891E-03  6.2866E-03  3.2349E-03   0.000    
   9    0.000      1.3733E-03  2.6855E-03  3.9062E-03  4.7913E-03  5.0812E-03  4.4861E-03  3.2349E-03  1.6785E-03   0.000    
  10    0.000       0.000       0.000       0.000       0.000       0.000       0.000       0.000       0.000       0.000    

  SYSTEM   1 OF SUBWT INTERBEDS:
1
        VOID RATIO IN LAYER   1 AT END OF TIME STEP  10 IN STRESS PERIOD    2
  ---------------------------------------------------------------------------

            1           2           3           4           5           6           7           8           9          10
 ........................................................................................................................
   1   0.8200      0.8200      0.8200      0.8200      0.8200      0.8200      0.8200      0.8200      0.8200      0.8200    
   2   0.8200      0.8200      0.8200      0.8200      0.8200      0.8200      0.8200      0.8200      0.8200      0.8200    
   3   0.8200      0.8200      0.8200      0.8200      0.8200      0.8200      0.8200      0.8200      0.8200      0.8200    
   4   0.8200      0.8200      0.8200      0.8200      0.8200      0.8200      0.8200      0.8200      0.8200      0.8200    
   5   0.8200      0.8200      0.8200      0.8200      0.8200      0.8200      0.8200      0.8200      0.8200      0.8200    
   6   0.8200      0.8200      0.8200      0.8200      0.8200      0.8200      0.8200      0.8200      0.8200      0.8200    
   7   0.8200      0.8200      0.8200      0.8200      0.8200      0.8200      0.8200      0.8200      0.8200      0.8200    
   8   0.8200      0.8200      0.8200      0.8200      0.8200      0.8200      0.8200      0.8200      0.8200      0.8200    
   9   0.8200      0.8200      0.8200      0.8200      0.8200      0.8200      0.8200      0.8200      0.8200      0.8200    
  10   0.8200      0.8200      0.8200      0.8200      0.8200      0.8200      0.8200      0.8200      0.8200      0.8200    

  SYSTEM   2 OF SUBWT INTERBEDS:
1
        VOID RATIO IN LAYER   2 AT END OF TIME STEP  10 IN STRESS PERIOD    2
  ---------------------------------------------------------------------------

            1           2           3           4           5           6           7           8           9          10
 ........................................................................................................................
   1   0.8200      0.8200      0.8200      0.8200      0.8200      0.8200      0.8200      0.8200      0.8200      0.8200    
   2   0.8200      0.8200      0.8200      0.8200      0.8200      0.8200      0.8200      0.8200      0.8200      0.8200    
   3   0.8200      0.8200      0.8200      0.8200      0.8200      0.8200      0.8200      0.8200      0.8200      0.8200    
   4   0.8200      0.8200      0.8200      0.8200      0.8200      0.8200      0.8200      0.8200      0.8200      0.8200    
   5   0.8200      0.8200      0.8200      0.8200      0.8200      0.8200      0.8200      0.8200      0.8200      0.8200    
   6   0.8200      0.8200      0.8200      0.8200      0.8200      0.8200      0.8200      0.8200      0.8200      0.8200    
   7   0.8200      0.8200      0.8200      0.8200      0.8200      0.8200      0.8200      0.8200      0.8200      0.8200    
   8   0.8200      0.8200      0.8200      0.8200      0.8200      0.8200      0.8200      0.8200      0.8200      0.8200    
   9   0.8200      0.8200      0.8200      0.8200      0.8200      0.8200      0.8200      0.8200      0.8200      0.8200    
  10   0.8200      0.8200      0.8200      0.8200      0.8200      0.8200      0.8200      0.8200      0.8200      0.8200    

  SYSTEM   3 OF SUBWT INTERBEDS:
1
        VOID RATIO IN LAYER   3 AT END OF TIME STEP  10 IN STRESS PERIOD    2
  ---------------------------------------------------------------------------

            1           2           3           4           5           6           7           8           9          10
 ........................................................................................................................
   1   0.8200      0.8200      0.8200      0.8200      0.8200      0.8200      0.8200      0.8200      0.8200      0.8200    
   2   0.8200      0.8200      0.8200      0.8200      0.8200      0.8200      0.8200      0.8200      0.8200      0.8200    
   3   0.8200      0.8200      0.8200      0.8200      0.8200      0.8200      0.8200      0.8200      0.8200      0.8200    
   4   0.8200      0.8200      0.8200      0.8200      0.8200      0.8200      0.8200      0.8200      0.8200      0.8200    
   5   0.8200      0.8200      0.8200      0.8200      0.8200      0.8200      0.8200      0.8200      0.8200      0.8200    
   6   0.8200      0.8200      0.8200      0.8200      0.8200      0.8200      0.8200      0.8200      0.8200      0.8200    
   7   0.8200      0.8200      0.8200      0.8200      0.8200      0.8200      0.8200      0.8200      0.8200      0.8200    
   8   0.8200      0.8200      0.8200      0.8200      0.8200      0.8200      0.8200      0.8200      0.8200      0.8200    
   9   0.8200      0.8200      0.8200      0.8200      0.8200      0.8200      0.8200      0.8200      0.8200      0.8200    
  10   0.8200      0.8200      0.8200      0.8200      0.8200      0.8200      0.8200      0.8200      0.8200      0.8200    

  SYSTEM   1 OF SUBWT INTERBEDS:
1
         THICKNESS IN LAYER   1 AT END OF TIME STEP  10 IN STRESS PERIOD    2
  ---------------------------------------------------------------------------

            1           2           3           4           5           6           7           8           9          10
 ........................................................................................................................
   1    10.00       10.00       10.00       10.00       10.00       10.00       10.00       10.00       10.00       10.00    
   2    10.00       10.00       10.00       10.00       10.00       10.00       10.00       10.00       10.00       10.00    
   3    10.00       10.00       10.00       10.00       10.00       10.00       10.00       10.00       10.00       10.00    
   4    10.00       10.00       10.00       10.00       10.00       10.00       10.00       10.00       10.00       10.00    
   5    10.00       10.00       10.00       10.00       10.00       10.00       10.00       10.00       10.00       10.00    
   6    10.00       10.00       10.00       10.00       10.00       10.00       10.00       10.00       10.00       10.00    
   7    10.00       10.00       10.00       10.00       10.00       10.00       10.00       10.00       10.00       10.00    
   8    10.00       10.00       10.00       10.00       10.00       10.00       10.00       10.00       10.00       10.00    
   9    10.00       10.00       10.00       10.00       10.00       10.00       10.00       10.00       10.00       10.00    
  10    10.00       10.00       10.00       10.00       10.00       10.00       10.00       10.00       10.00       10.00    

  SYSTEM   2 OF SUBWT INTERBEDS:
1
         THICKNESS IN LAYER   2 AT END OF TIME STEP  10 IN STRESS PERIOD    2
  ---------------------------------------------------------------------------

            1           2           3           4           5           6           7           8           9          10
 ........................................................................................................................
   1    15.00       15.00       15.00       15.00       15.00       15.00       15.00       15.00       15.00       15.00    
   2    15.00       15.00       15.00       15.00       15.00       15.00       15.00       15.00       15.00       15.00    
   3    15.00       15.00       15.00       15.00       15.00       15.00       15.00       15.00       15.00       15.00    
   4    15.00       15.00       15.00       15.00       15.00       15.00       15.00       15.00       15.00       15.00    
   5    15.00       15.00       15.00       15.00       15.00       15.00       15.00       15.00       15.00       15.00    
   6    15.00       15.00       15.00       15.00       15.00       15.00       15.00       15.00       15.00       15.00    
   7    15.00       15.00       15.00       15.00       15.00       15.00       15.00       15.00       15.00       15.00    
   8    15.00       15.00       15.00       15.00       15.00       15.00       15.00       15.00       15.00       15.00    
   9    15.00       15.00       15.00       15.00       15.00       15.00       15.00       15.00       15.00       15.00    
  10    15.00       15.00       15.00       15.00       15.00       15.00       15.00       15.00       15.00       15.00    

  SYSTEM   3 OF SUBWT INTERBEDS:
1
         THICKNESS IN LAYER   3 AT END OF TIME STEP  10 IN STRESS PERIOD    2
  ---------------------------------------------------------------------------

            1           2           3           4           5           6           7           8           9          10
 ........................................................................................................................
   1    10.00       10.00       10.00       10.00       10.00       10.00       10.00       10.00       10.00       10.00    
   2    10.00       10.00       10.00       10.00       10.00       10.00       10.00       10.00       10.00       10.00    
   3    10.00       10.00       10.00       10.00       10.00       10.00       10.00       10.00       10.00       10.00    
   4    10.00       10.00       10.00       10.00       10.00       10.00       10.00       10.00       10.00       10.00    
   5    10.00       10.00       10.00       10.00       10.00       10.00       10.00       10.00       10.00       10.00    
   6    10.00       10.00       10.00       10.00       10.00       10.00       10.00       10.00       10.00       10.00    
   7    10.00       10.00       10.00       10.00       10.00       10.00       10.00       10.00       10.00       10.00    
   8    10.00       10.00       10.00       10.00       10.00       10.00       10.00       10.00       10.00       10.00    
   9    10.00       10.00       10.00       10.00       10.00       10.00       10.00       10.00       10.00       10.00    
  10    10.00       10.00       10.00       10.00       10.00       10.00       10.00       10.00       10.00       10.00    
1
  CENTER ELEVATION IN LAYER   1 AT END OF TIME STEP  10 IN STRESS PERIOD    2
  ---------------------------------------------------------------------------

            1           2           3           4           5           6           7           8           9          10
 ........................................................................................................................
   1    22.50       22.50       22.50       22.50       22.50       22.50       22.50       22.50       22.50       22.50    
   2    22.50       22.50       22.50       22.50       22.50       22.50       22.50       22.50       22.50       22.50    
   3    22.50       22.50       22.50       22.49       22.49       22.49       22.49       22.50       22.50       22.50    
   4    22.50       22.50       22.49       22.49       22.49       22.49       22.49       22.49       22.50       22.50    
   5    22.50       22.50       22.49       22.49       22.49       22.49       22.49       22.49       22.50       22.50    
   6    22.50       22.50       22.49       22.49       22.49       22.48       22.49       22.49       22.50       22.50    
   7    22.50       22.50       22.49       22.49       22.49       22.49       22.49       22.49       22.50       22.50    
   8    22.50       22.50       22.50       22.49       22.49       22.49       22.49       22.49       22.50       22.50    
   9    22.50       22.50       22.50       22.50       22.50       22.50       22.50       22.50       22.50       22.50    
  10    22.50       22.50       22.50       22.50       22.50       22.50       22.50       22.50       22.50       22.50    
1
  CENTER ELEVATION IN LAYER   2 AT END OF TIME STEP  10 IN STRESS PERIOD    2
  ---------------------------------------------------------------------------

            1           2           3           4           5           6           7           8           9          10
 ........................................................................................................................
   1   -25.00      -25.00      -25.00      -25.00      -25.00      -25.00      -25.00      -25.00      -25.00      -25.00    
   2   -25.00      -25.00      -25.00      -25.00      -25.00      -25.00      -25.00      -25.00      -25.00      -25.00    
   3   -25.00      -25.00      -25.00      -25.00      -25.00      -25.00      -25.00      -25.00      -25.00      -25.00    
   4   -25.00      -25.00      -25.00      -25.00      -25.00      -25.00      -25.00      -25.00      -25.00      -25.00    
   5   -25.00      -25.00      -25.00      -25.00      -25.00      -25.00      -25.00      -25.00      -25.00      -25.00    
   6   -25.00      -25.00      -25.00      -25.00      -25.00      -25.00      -25.00      -25.00      -25.00      -25.00    
   7   -25.00      -25.00      -25.00      -25.00      -25.00      -25.00      -25.00      -25.00      -25.00      -25.00    
   8   -25.00      -25.00      -25.00      -25.00      -25.00      -25.00      -25.00      -25.00      -25.00      -25.00    
   9   -25.00      -25.00      -25.00      -25.00      -25.00      -25.00      -25.00      -25.00      -25.00      -25.00    
  10   -25.00      -25.00      -25.00      -25.00      -25.00      -25.00      -25.00      -25.00      -25.00      -25.00    
1
  CENTER ELEVATION IN LAYER   3 AT END OF TIME STEP  10 IN STRESS PERIOD    2
  ---------------------------------------------------------------------------

            1           2           3           4           5           6           7           8           9          10
 ........................................................................................................................
   1   -75.00      -75.00      -75.00      -75.00      -75.00      -75.00      -75.00      -75.00      -75.00      -75.00    
   2   -75.00      -75.00      -75.00      -75.00      -75.00      -75.00      -75.00      -75.00      -75.00      -75.00    
   3   -75.00      -75.00      -75.00      -75.00      -75.00      -75.00      -75.00      -75.00      -75.00      -75.00    
   4   -75.00      -75.00      -75.00      -75.00      -75.00      -75.00      -75.00      -75.00      -75.00      -75.00    
   5   -75.00      -75.00      -75.00      -75.00      -75.00      -75.00      -75.00      -75.00      -75.00      -75.00    
   6   -75.00      -75.00      -75.00      -75.00      -75.00      -75.00      -75.00      -75.00      -75.00      -75.00    
   7   -75.00      -75.00      -75.00      -75.00      -75.00      -75.00      -75.00      -75.00      -75.00      -75.00    
   8   -75.00      -75.00      -75.00      -75.00      -75.00      -75.00      -75.00      -75.00      -75.00      -75.00    
   9   -75.00      -75.00      -75.00      -75.00      -75.00      -75.00      -75.00      -75.00      -75.00      -75.00    
  10   -75.00      -75.00      -75.00      -75.00      -75.00      -75.00      -75.00      -75.00      -75.00      -75.00    

 Run end date and time (yyyy/mm/dd hh:mm:ss): 2025/08/08 18:30:58
 Elapsed run time:  0.029 Seconds

