                                   MODFLOW 6
                U.S. GEOLOGICAL SURVEY MODULAR HYDROLOGIC MODEL
                          GROUNDWATER FLOW MODEL (GWF)
                            VERSION 6.6.2 05/12/2025

   MODFLOW 6 compiled May 24 2025 11:41:46 with Intel(R) Fortran Intel(R) 64
   Compiler Classic for applications running on Intel(R) 64, Version 2021.7.0
                             Build 20220726_000000

This software has been approved for release by the U.S. Geological 
Survey (USGS). Although the software has been subjected to rigorous 
review, the USGS reserves the right to update the software as needed 
pursuant to further analysis and review. No warranty, expressed or 
implied, is made by the USGS or the U.S. Government as to the 
functionality of the software and related material nor shall the 
fact of release constitute any such warranty. Furthermore, the 
software is released on condition that neither the USGS nor the U.S. 
Government shall be held liable for any damages resulting from its 
authorized or unauthorized use. Also refer to the USGS Water 
Resources Software User Rights Notice for complete use, copyright, 
and distribution information.


As a work of the United States Government, this USGS product is 
in the public domain within the United States. You can copy, 
modify, distribute, and perform the work, even for commercial 
purposes, all without asking permission. Additionally, USGS 
waives copyright and related rights in the work worldwide 
through CC0 1.0 Universal Public Domain Dedication 
(https://creativecommons.org/publicdomain/zero/1.0/).

The following GNU Lesser General Public License (LGPL) libraries
are used in this USGS product:

    SPARSKIT version 2.0
      ilut, luson, and qsplit 
      (https://www-users.cse.umn.edu/~saad/software/SPARSKIT/)

    RCM - Reverse Cuthill McKee Ordering
      (https://people.math.sc.edu/Burkardt/f_src/rcm/rcm.html)

    BLAS - Basic Linear Algebra Subprograms Level 1
      (https://people.math.sc.edu/Burkardt/f_src/blas1_d/blas1_d.html)

    SPARSEKIT - Sparse Matrix Utility Package
      amux, dperm, dvperm, rperm, and cperm
      (https://people.sc.fsu.edu/~jburkardt/f77_src/sparsekit/sparsekit.html)

The following BSD-3 License libraries are used in this USGS product:

    Modern Fortran DAG Library
      Copyright (c) 2018, Jacob Williams
      All rights reserved.
      (https://github.com/jacobwilliams/daglib)

MODFLOW 6 compiler options: -Ilinux/obj_mf6 -O2 -no-heap-arrays -fpe0
-traceback -Qdiag-disable:7416 -Qdiag-disable:7025 -Qdiag-disable:5268 -fpp
-module linux/mod_mf6/ -c -o linux/obj_mf6/compilerversion.o

System command used to initiate simulation:
/home/danilopezmella/flopy_expert/bin/mf6

MODFLOW was compiled using uniform precision.

Real Variables
  KIND: 8
  TINY (smallest non-zero value):    2.225074-308
  HUGE (largest value):    1.797693+308
  PRECISION: 15
  SIZE IN BITS: 64

Integer Variables
  KIND: 4
  HUGE (largest value): 2147483647
  SIZE IN BITS: 32

Long Integer Variables
  KIND: 8
  HUGE (largest value): 9223372036854775807
  SIZE IN BITS: 64

Logical Variables
  KIND: 4
  SIZE IN BITS: 32
 
 NAMEFILE OPTIONS:
    FLOWS WILL BE SAVED TO BUDGET FILE SPECIFIED IN OUTPUT CONTROL
 END NAMEFILE OPTIONS:

 DIS -- STRUCTURED GRID DISCRETIZATION PACKAGE, VERSION 2 : 3/27/2014 - INPUT READ FROM MEMPATH: __INPUT__/FORMHEAD/DIS                            


 NPF -- NODE PROPERTY FLOW PACKAGE, VERSION 1, 3/30/2015 INPUT READ FROM MEMPATH: __INPUT__/FORMHEAD/NPF                            


 IC -- Initial Conditions Package, Version 8, 3/28/2015 input read from mempath: __INPUT__/FORMHEAD/IC                             


 Setting Discretization Options
 End Setting Discretization Options

 Setting Discretization Dimensions
    NLAY = 1
    NROW = 15
    NCOL = 10
 End Setting Discretization Dimensions

 Setting Discretization Griddata
    DELR set from input file
    DELC set from input file
    TOP set from input file
    BOTM set from input file
 End Setting Discretization Griddata

 Setting NPF Options
    Specific discharge will be calculated at cell centers and written to DATA-SPDIS in budget file when requested.
 End Setting NPF Options

 Setting NPF Griddata
    ICELLTYPE set from input file
    K set from input file
    K33 set from input file
    K22 not provided.  Setting K22 = K.
 End Setting NPF Griddata


 CHD   -- CHD PACKAGE, VERSION 8, 2/22/2014 INPUT READ FROM MEMPATH: __INPUT__/FORMHEAD/CHD_0                          

 PROCESSING CHD BASE OPTIONS
 END OF CHD BASE OPTIONS

 PROCESSING CHD BASE DIMENSIONS
    MAXBOUND =      30
 END OF CHD BASE DIMENSIONS
    STRT set from input file
    BINARY GRID INFORMATION WILL BE WRITTEN TO:
      UNIT NUMBER: 1011
      FILE NAME: formhead.dis.grb

 OPENED formhead.dis.grb
 FILE TYPE:DATA(BINARY)   UNIT 1011   STATUS:REPLACE             
 FORMAT:UNFORMATTED            ACCESS:STREAM              
 ACTION:READWRITE           

      THE LAST TIME STEP WILL BE PRINTED
      THE LAST TIME STEP WILL BE PRINTED
 # File generated by Flopy version 3.9.3 on 08/07/2025 at 00:17:44.

 PROCESSING OC OPTIONS

    BUDGET INFORMATION WILL BE WRITTEN TO:
      UNIT NUMBER: 1012
      FILE NAME: formhead.cbc

 OPENED formhead.cbc
 FILE TYPE:DATA(BINARY)   UNIT 1012   STATUS:REPLACE             
 FORMAT:UNFORMATTED            ACCESS:STREAM              
 ACTION:READWRITE           

    HEAD INFORMATION WILL BE WRITTEN TO:
      UNIT NUMBER: 1013
      FILE NAME: formhead.hds

 OPENED formhead.hds
 FILE TYPE:DATA(BINARY)   UNIT 1013   STATUS:REPLACE             
 FORMAT:UNFORMATTED            ACCESS:STREAM              
 ACTION:READWRITE           

 END OF OC OPTIONS

start timestep kper="1" kstp="1" mode="normal"


 BEGIN READING OUTPUT CONTROL FOR STRESS PERIOD 1
      ALL TIME STEPS WILL BE SAVED
      ALL TIME STEPS WILL BE SAVED
      THE LAST TIME STEP WILL BE PRINTED
      THE LAST TIME STEP WILL BE PRINTED

 END READING OUTPUT CONTROL FOR STRESS PERIOD 1
 UBDSV1 SAVING     FLOW-JA-FACE ON UNIT   1012 AT TIME STEP      1, STRESS PERIOD      1
 UBDSV06 SAVING       DATA-SPDIS IN MODEL FORMHEAD         PACKAGE NPF             CONNECTED TO MODEL FORMHEAD         PACKAGE NPF              ON UNIT   1012 AT TIME STEP      1, STRESS PERIOD      1
 UBDSV06 SAVING              CHD IN MODEL FORMHEAD         PACKAGE FORMHEAD        CONNECTED TO MODEL FORMHEAD         PACKAGE CHD_0            ON UNIT   1012 AT TIME STEP      1, STRESS PERIOD      1
1
  HEAD IN LAYER   1 AT END OF TIME STEP   1 IN STRESS PERIOD    1
  ---------------------------------------------------------------------------

            1           2           3           4           5           6           7           8           9          10
 ........................................................................................................................
   1    10.00       9.444       8.889       8.333       7.778       7.222       6.667       6.111       5.556       5.000    
   2    10.00       9.444       8.889       8.333       7.778       7.222       6.667       6.111       5.556       5.000    
   3    10.00       9.444       8.889       8.333       7.778       7.222       6.667       6.111       5.556       5.000    
   4    10.00       9.444       8.889       8.333       7.778       7.222       6.667       6.111       5.556       5.000    
   5    10.00       9.444       8.889       8.333       7.778       7.222       6.667       6.111       5.556       5.000    
   6    10.00       9.444       8.889       8.333       7.778       7.222       6.667       6.111       5.556       5.000    
   7    10.00       9.444       8.889       8.333       7.778       7.222       6.667       6.111       5.556       5.000    
   8    10.00       9.444       8.889       8.333       7.778       7.222       6.667       6.111       5.556       5.000    
   9    10.00       9.444       8.889       8.333       7.778       7.222       6.667       6.111       5.556       5.000    
  10    10.00       9.444       8.889       8.333       7.778       7.222       6.667       6.111       5.556       5.000    
  11    10.00       9.444       8.889       8.333       7.778       7.222       6.667       6.111       5.556       5.000    
  12    10.00       9.444       8.889       8.333       7.778       7.222       6.667       6.111       5.556       5.000    
  13    10.00       9.444       8.889       8.333       7.778       7.222       6.667       6.111       5.556       5.000    
  14    10.00       9.444       8.889       8.333       7.778       7.222       6.667       6.111       5.556       5.000    
  15    10.00       9.444       8.889       8.333       7.778       7.222       6.667       6.111       5.556       5.000    

 HEAD WILL BE SAVED ON UNIT 1013 AT END OF TIME STEP    1, STRESS PERIOD    1


  VOLUME BUDGET FOR ENTIRE MODEL AT END OF TIME STEP    1, STRESS PERIOD   1
  ---------------------------------------------------------------------------------------------------

     CUMULATIVE VOLUME      L**3       RATES FOR THIS TIME STEP      L**3/T          PACKAGE NAME    
     ------------------                 ------------------------                     ----------------

           IN:                                      IN:
           ---                                      ---
                 CHD =         833.3333                   CHD =         833.3333     CHD_0                            

            TOTAL IN =         833.3333              TOTAL IN =         833.3333

          OUT:                                     OUT:
          ----                                     ----
                 CHD =         833.3333                   CHD =         833.3333     CHD_0                            

           TOTAL OUT =         833.3333             TOTAL OUT =         833.3333

            IN - OUT =      -2.2767E-08              IN - OUT =      -2.2767E-08

 PERCENT DISCREPANCY =          -0.00     PERCENT DISCREPANCY =          -0.00




         TIME SUMMARY AT END OF TIME STEP    1 IN STRESS PERIOD    1
                          TIME STEP LENGTH =    1.00000    
                        STRESS PERIOD TIME =    1.00000    
                     TOTAL SIMULATION TIME =    1.00000    

end timestep


start timestep kper="2" kstp="1" mode="normal"


 END OF FILE DETECTED IN OUTPUT CONTROL.
 CURRENT OUTPUT CONTROL SETTINGS WILL BE 
 REPEATED UNTIL THE END OF THE SIMULATION.

 OUTPUT CONTROL FOR STRESS PERIOD 2 IS REPEATED USING SETTINGS FROM A PREVIOUS STRESS PERIOD.
 UBDSV1 SAVING     FLOW-JA-FACE ON UNIT   1012 AT TIME STEP      1, STRESS PERIOD      2
 UBDSV06 SAVING       DATA-SPDIS IN MODEL FORMHEAD         PACKAGE NPF             CONNECTED TO MODEL FORMHEAD         PACKAGE NPF              ON UNIT   1012 AT TIME STEP      1, STRESS PERIOD      2
 UBDSV06 SAVING              CHD IN MODEL FORMHEAD         PACKAGE FORMHEAD        CONNECTED TO MODEL FORMHEAD         PACKAGE CHD_0            ON UNIT   1012 AT TIME STEP      1, STRESS PERIOD      2

 HEAD WILL BE SAVED ON UNIT 1013 AT END OF TIME STEP    1, STRESS PERIOD    2

end timestep


start timestep kper="2" kstp="2" mode="normal"

 UBDSV1 SAVING     FLOW-JA-FACE ON UNIT   1012 AT TIME STEP      2, STRESS PERIOD      2
 UBDSV06 SAVING       DATA-SPDIS IN MODEL FORMHEAD         PACKAGE NPF             CONNECTED TO MODEL FORMHEAD         PACKAGE NPF              ON UNIT   1012 AT TIME STEP      2, STRESS PERIOD      2
 UBDSV06 SAVING              CHD IN MODEL FORMHEAD         PACKAGE FORMHEAD        CONNECTED TO MODEL FORMHEAD         PACKAGE CHD_0            ON UNIT   1012 AT TIME STEP      2, STRESS PERIOD      2

 HEAD WILL BE SAVED ON UNIT 1013 AT END OF TIME STEP    2, STRESS PERIOD    2

end timestep


start timestep kper="2" kstp="3" mode="normal"

 UBDSV1 SAVING     FLOW-JA-FACE ON UNIT   1012 AT TIME STEP      3, STRESS PERIOD      2
 UBDSV06 SAVING       DATA-SPDIS IN MODEL FORMHEAD         PACKAGE NPF             CONNECTED TO MODEL FORMHEAD         PACKAGE NPF              ON UNIT   1012 AT TIME STEP      3, STRESS PERIOD      2
 UBDSV06 SAVING              CHD IN MODEL FORMHEAD         PACKAGE FORMHEAD        CONNECTED TO MODEL FORMHEAD         PACKAGE CHD_0            ON UNIT   1012 AT TIME STEP      3, STRESS PERIOD      2

 HEAD WILL BE SAVED ON UNIT 1013 AT END OF TIME STEP    3, STRESS PERIOD    2

end timestep


start timestep kper="2" kstp="4" mode="normal"

 UBDSV1 SAVING     FLOW-JA-FACE ON UNIT   1012 AT TIME STEP      4, STRESS PERIOD      2
 UBDSV06 SAVING       DATA-SPDIS IN MODEL FORMHEAD         PACKAGE NPF             CONNECTED TO MODEL FORMHEAD         PACKAGE NPF              ON UNIT   1012 AT TIME STEP      4, STRESS PERIOD      2
 UBDSV06 SAVING              CHD IN MODEL FORMHEAD         PACKAGE FORMHEAD        CONNECTED TO MODEL FORMHEAD         PACKAGE CHD_0            ON UNIT   1012 AT TIME STEP      4, STRESS PERIOD      2

 HEAD WILL BE SAVED ON UNIT 1013 AT END OF TIME STEP    4, STRESS PERIOD    2

end timestep


start timestep kper="2" kstp="5" mode="normal"

 UBDSV1 SAVING     FLOW-JA-FACE ON UNIT   1012 AT TIME STEP      5, STRESS PERIOD      2
 UBDSV06 SAVING       DATA-SPDIS IN MODEL FORMHEAD         PACKAGE NPF             CONNECTED TO MODEL FORMHEAD         PACKAGE NPF              ON UNIT   1012 AT TIME STEP      5, STRESS PERIOD      2
 UBDSV06 SAVING              CHD IN MODEL FORMHEAD         PACKAGE FORMHEAD        CONNECTED TO MODEL FORMHEAD         PACKAGE CHD_0            ON UNIT   1012 AT TIME STEP      5, STRESS PERIOD      2

 HEAD WILL BE SAVED ON UNIT 1013 AT END OF TIME STEP    5, STRESS PERIOD    2

end timestep


start timestep kper="2" kstp="6" mode="normal"

 UBDSV1 SAVING     FLOW-JA-FACE ON UNIT   1012 AT TIME STEP      6, STRESS PERIOD      2
 UBDSV06 SAVING       DATA-SPDIS IN MODEL FORMHEAD         PACKAGE NPF             CONNECTED TO MODEL FORMHEAD         PACKAGE NPF              ON UNIT   1012 AT TIME STEP      6, STRESS PERIOD      2
 UBDSV06 SAVING              CHD IN MODEL FORMHEAD         PACKAGE FORMHEAD        CONNECTED TO MODEL FORMHEAD         PACKAGE CHD_0            ON UNIT   1012 AT TIME STEP      6, STRESS PERIOD      2

 HEAD WILL BE SAVED ON UNIT 1013 AT END OF TIME STEP    6, STRESS PERIOD    2

end timestep


start timestep kper="2" kstp="7" mode="normal"

 UBDSV1 SAVING     FLOW-JA-FACE ON UNIT   1012 AT TIME STEP      7, STRESS PERIOD      2
 UBDSV06 SAVING       DATA-SPDIS IN MODEL FORMHEAD         PACKAGE NPF             CONNECTED TO MODEL FORMHEAD         PACKAGE NPF              ON UNIT   1012 AT TIME STEP      7, STRESS PERIOD      2
 UBDSV06 SAVING              CHD IN MODEL FORMHEAD         PACKAGE FORMHEAD        CONNECTED TO MODEL FORMHEAD         PACKAGE CHD_0            ON UNIT   1012 AT TIME STEP      7, STRESS PERIOD      2

 HEAD WILL BE SAVED ON UNIT 1013 AT END OF TIME STEP    7, STRESS PERIOD    2

end timestep


start timestep kper="2" kstp="8" mode="normal"

 UBDSV1 SAVING     FLOW-JA-FACE ON UNIT   1012 AT TIME STEP      8, STRESS PERIOD      2
 UBDSV06 SAVING       DATA-SPDIS IN MODEL FORMHEAD         PACKAGE NPF             CONNECTED TO MODEL FORMHEAD         PACKAGE NPF              ON UNIT   1012 AT TIME STEP      8, STRESS PERIOD      2
 UBDSV06 SAVING              CHD IN MODEL FORMHEAD         PACKAGE FORMHEAD        CONNECTED TO MODEL FORMHEAD         PACKAGE CHD_0            ON UNIT   1012 AT TIME STEP      8, STRESS PERIOD      2

 HEAD WILL BE SAVED ON UNIT 1013 AT END OF TIME STEP    8, STRESS PERIOD    2

end timestep


start timestep kper="2" kstp="9" mode="normal"

 UBDSV1 SAVING     FLOW-JA-FACE ON UNIT   1012 AT TIME STEP      9, STRESS PERIOD      2
 UBDSV06 SAVING       DATA-SPDIS IN MODEL FORMHEAD         PACKAGE NPF             CONNECTED TO MODEL FORMHEAD         PACKAGE NPF              ON UNIT   1012 AT TIME STEP      9, STRESS PERIOD      2
 UBDSV06 SAVING              CHD IN MODEL FORMHEAD         PACKAGE FORMHEAD        CONNECTED TO MODEL FORMHEAD         PACKAGE CHD_0            ON UNIT   1012 AT TIME STEP      9, STRESS PERIOD      2

 HEAD WILL BE SAVED ON UNIT 1013 AT END OF TIME STEP    9, STRESS PERIOD    2

end timestep


start timestep kper="2" kstp="10" mode="normal"

 UBDSV1 SAVING     FLOW-JA-FACE ON UNIT   1012 AT TIME STEP     10, STRESS PERIOD      2
 UBDSV06 SAVING       DATA-SPDIS IN MODEL FORMHEAD         PACKAGE NPF             CONNECTED TO MODEL FORMHEAD         PACKAGE NPF              ON UNIT   1012 AT TIME STEP     10, STRESS PERIOD      2
 UBDSV06 SAVING              CHD IN MODEL FORMHEAD         PACKAGE FORMHEAD        CONNECTED TO MODEL FORMHEAD         PACKAGE CHD_0            ON UNIT   1012 AT TIME STEP     10, STRESS PERIOD      2

 HEAD WILL BE SAVED ON UNIT 1013 AT END OF TIME STEP   10, STRESS PERIOD    2

end timestep


start timestep kper="2" kstp="11" mode="normal"

 UBDSV1 SAVING     FLOW-JA-FACE ON UNIT   1012 AT TIME STEP     11, STRESS PERIOD      2
 UBDSV06 SAVING       DATA-SPDIS IN MODEL FORMHEAD         PACKAGE NPF             CONNECTED TO MODEL FORMHEAD         PACKAGE NPF              ON UNIT   1012 AT TIME STEP     11, STRESS PERIOD      2
 UBDSV06 SAVING              CHD IN MODEL FORMHEAD         PACKAGE FORMHEAD        CONNECTED TO MODEL FORMHEAD         PACKAGE CHD_0            ON UNIT   1012 AT TIME STEP     11, STRESS PERIOD      2

 HEAD WILL BE SAVED ON UNIT 1013 AT END OF TIME STEP   11, STRESS PERIOD    2

end timestep


start timestep kper="2" kstp="12" mode="normal"

 UBDSV1 SAVING     FLOW-JA-FACE ON UNIT   1012 AT TIME STEP     12, STRESS PERIOD      2
 UBDSV06 SAVING       DATA-SPDIS IN MODEL FORMHEAD         PACKAGE NPF             CONNECTED TO MODEL FORMHEAD         PACKAGE NPF              ON UNIT   1012 AT TIME STEP     12, STRESS PERIOD      2
 UBDSV06 SAVING              CHD IN MODEL FORMHEAD         PACKAGE FORMHEAD        CONNECTED TO MODEL FORMHEAD         PACKAGE CHD_0            ON UNIT   1012 AT TIME STEP     12, STRESS PERIOD      2

 HEAD WILL BE SAVED ON UNIT 1013 AT END OF TIME STEP   12, STRESS PERIOD    2

end timestep


start timestep kper="2" kstp="13" mode="normal"

 UBDSV1 SAVING     FLOW-JA-FACE ON UNIT   1012 AT TIME STEP     13, STRESS PERIOD      2
 UBDSV06 SAVING       DATA-SPDIS IN MODEL FORMHEAD         PACKAGE NPF             CONNECTED TO MODEL FORMHEAD         PACKAGE NPF              ON UNIT   1012 AT TIME STEP     13, STRESS PERIOD      2
 UBDSV06 SAVING              CHD IN MODEL FORMHEAD         PACKAGE FORMHEAD        CONNECTED TO MODEL FORMHEAD         PACKAGE CHD_0            ON UNIT   1012 AT TIME STEP     13, STRESS PERIOD      2

 HEAD WILL BE SAVED ON UNIT 1013 AT END OF TIME STEP   13, STRESS PERIOD    2

end timestep


start timestep kper="2" kstp="14" mode="normal"

 UBDSV1 SAVING     FLOW-JA-FACE ON UNIT   1012 AT TIME STEP     14, STRESS PERIOD      2
 UBDSV06 SAVING       DATA-SPDIS IN MODEL FORMHEAD         PACKAGE NPF             CONNECTED TO MODEL FORMHEAD         PACKAGE NPF              ON UNIT   1012 AT TIME STEP     14, STRESS PERIOD      2
 UBDSV06 SAVING              CHD IN MODEL FORMHEAD         PACKAGE FORMHEAD        CONNECTED TO MODEL FORMHEAD         PACKAGE CHD_0            ON UNIT   1012 AT TIME STEP     14, STRESS PERIOD      2

 HEAD WILL BE SAVED ON UNIT 1013 AT END OF TIME STEP   14, STRESS PERIOD    2

end timestep


start timestep kper="2" kstp="15" mode="normal"

 UBDSV1 SAVING     FLOW-JA-FACE ON UNIT   1012 AT TIME STEP     15, STRESS PERIOD      2
 UBDSV06 SAVING       DATA-SPDIS IN MODEL FORMHEAD         PACKAGE NPF             CONNECTED TO MODEL FORMHEAD         PACKAGE NPF              ON UNIT   1012 AT TIME STEP     15, STRESS PERIOD      2
 UBDSV06 SAVING              CHD IN MODEL FORMHEAD         PACKAGE FORMHEAD        CONNECTED TO MODEL FORMHEAD         PACKAGE CHD_0            ON UNIT   1012 AT TIME STEP     15, STRESS PERIOD      2

 HEAD WILL BE SAVED ON UNIT 1013 AT END OF TIME STEP   15, STRESS PERIOD    2

end timestep


start timestep kper="2" kstp="16" mode="normal"

 UBDSV1 SAVING     FLOW-JA-FACE ON UNIT   1012 AT TIME STEP     16, STRESS PERIOD      2
 UBDSV06 SAVING       DATA-SPDIS IN MODEL FORMHEAD         PACKAGE NPF             CONNECTED TO MODEL FORMHEAD         PACKAGE NPF              ON UNIT   1012 AT TIME STEP     16, STRESS PERIOD      2
 UBDSV06 SAVING              CHD IN MODEL FORMHEAD         PACKAGE FORMHEAD        CONNECTED TO MODEL FORMHEAD         PACKAGE CHD_0            ON UNIT   1012 AT TIME STEP     16, STRESS PERIOD      2

 HEAD WILL BE SAVED ON UNIT 1013 AT END OF TIME STEP   16, STRESS PERIOD    2

end timestep


start timestep kper="2" kstp="17" mode="normal"

 UBDSV1 SAVING     FLOW-JA-FACE ON UNIT   1012 AT TIME STEP     17, STRESS PERIOD      2
 UBDSV06 SAVING       DATA-SPDIS IN MODEL FORMHEAD         PACKAGE NPF             CONNECTED TO MODEL FORMHEAD         PACKAGE NPF              ON UNIT   1012 AT TIME STEP     17, STRESS PERIOD      2
 UBDSV06 SAVING              CHD IN MODEL FORMHEAD         PACKAGE FORMHEAD        CONNECTED TO MODEL FORMHEAD         PACKAGE CHD_0            ON UNIT   1012 AT TIME STEP     17, STRESS PERIOD      2

 HEAD WILL BE SAVED ON UNIT 1013 AT END OF TIME STEP   17, STRESS PERIOD    2

end timestep


start timestep kper="2" kstp="18" mode="normal"

 UBDSV1 SAVING     FLOW-JA-FACE ON UNIT   1012 AT TIME STEP     18, STRESS PERIOD      2
 UBDSV06 SAVING       DATA-SPDIS IN MODEL FORMHEAD         PACKAGE NPF             CONNECTED TO MODEL FORMHEAD         PACKAGE NPF              ON UNIT   1012 AT TIME STEP     18, STRESS PERIOD      2
 UBDSV06 SAVING              CHD IN MODEL FORMHEAD         PACKAGE FORMHEAD        CONNECTED TO MODEL FORMHEAD         PACKAGE CHD_0            ON UNIT   1012 AT TIME STEP     18, STRESS PERIOD      2

 HEAD WILL BE SAVED ON UNIT 1013 AT END OF TIME STEP   18, STRESS PERIOD    2

end timestep


start timestep kper="2" kstp="19" mode="normal"

 UBDSV1 SAVING     FLOW-JA-FACE ON UNIT   1012 AT TIME STEP     19, STRESS PERIOD      2
 UBDSV06 SAVING       DATA-SPDIS IN MODEL FORMHEAD         PACKAGE NPF             CONNECTED TO MODEL FORMHEAD         PACKAGE NPF              ON UNIT   1012 AT TIME STEP     19, STRESS PERIOD      2
 UBDSV06 SAVING              CHD IN MODEL FORMHEAD         PACKAGE FORMHEAD        CONNECTED TO MODEL FORMHEAD         PACKAGE CHD_0            ON UNIT   1012 AT TIME STEP     19, STRESS PERIOD      2

 HEAD WILL BE SAVED ON UNIT 1013 AT END OF TIME STEP   19, STRESS PERIOD    2

end timestep


start timestep kper="2" kstp="20" mode="normal"

 UBDSV1 SAVING     FLOW-JA-FACE ON UNIT   1012 AT TIME STEP     20, STRESS PERIOD      2
 UBDSV06 SAVING       DATA-SPDIS IN MODEL FORMHEAD         PACKAGE NPF             CONNECTED TO MODEL FORMHEAD         PACKAGE NPF              ON UNIT   1012 AT TIME STEP     20, STRESS PERIOD      2
 UBDSV06 SAVING              CHD IN MODEL FORMHEAD         PACKAGE FORMHEAD        CONNECTED TO MODEL FORMHEAD         PACKAGE CHD_0            ON UNIT   1012 AT TIME STEP     20, STRESS PERIOD      2

 HEAD WILL BE SAVED ON UNIT 1013 AT END OF TIME STEP   20, STRESS PERIOD    2

end timestep


start timestep kper="2" kstp="21" mode="normal"

 UBDSV1 SAVING     FLOW-JA-FACE ON UNIT   1012 AT TIME STEP     21, STRESS PERIOD      2
 UBDSV06 SAVING       DATA-SPDIS IN MODEL FORMHEAD         PACKAGE NPF             CONNECTED TO MODEL FORMHEAD         PACKAGE NPF              ON UNIT   1012 AT TIME STEP     21, STRESS PERIOD      2
 UBDSV06 SAVING              CHD IN MODEL FORMHEAD         PACKAGE FORMHEAD        CONNECTED TO MODEL FORMHEAD         PACKAGE CHD_0            ON UNIT   1012 AT TIME STEP     21, STRESS PERIOD      2

 HEAD WILL BE SAVED ON UNIT 1013 AT END OF TIME STEP   21, STRESS PERIOD    2

end timestep


start timestep kper="2" kstp="22" mode="normal"

 UBDSV1 SAVING     FLOW-JA-FACE ON UNIT   1012 AT TIME STEP     22, STRESS PERIOD      2
 UBDSV06 SAVING       DATA-SPDIS IN MODEL FORMHEAD         PACKAGE NPF             CONNECTED TO MODEL FORMHEAD         PACKAGE NPF              ON UNIT   1012 AT TIME STEP     22, STRESS PERIOD      2
 UBDSV06 SAVING              CHD IN MODEL FORMHEAD         PACKAGE FORMHEAD        CONNECTED TO MODEL FORMHEAD         PACKAGE CHD_0            ON UNIT   1012 AT TIME STEP     22, STRESS PERIOD      2

 HEAD WILL BE SAVED ON UNIT 1013 AT END OF TIME STEP   22, STRESS PERIOD    2

end timestep


start timestep kper="2" kstp="23" mode="normal"

 UBDSV1 SAVING     FLOW-JA-FACE ON UNIT   1012 AT TIME STEP     23, STRESS PERIOD      2
 UBDSV06 SAVING       DATA-SPDIS IN MODEL FORMHEAD         PACKAGE NPF             CONNECTED TO MODEL FORMHEAD         PACKAGE NPF              ON UNIT   1012 AT TIME STEP     23, STRESS PERIOD      2
 UBDSV06 SAVING              CHD IN MODEL FORMHEAD         PACKAGE FORMHEAD        CONNECTED TO MODEL FORMHEAD         PACKAGE CHD_0            ON UNIT   1012 AT TIME STEP     23, STRESS PERIOD      2

 HEAD WILL BE SAVED ON UNIT 1013 AT END OF TIME STEP   23, STRESS PERIOD    2

end timestep


start timestep kper="2" kstp="24" mode="normal"

 UBDSV1 SAVING     FLOW-JA-FACE ON UNIT   1012 AT TIME STEP     24, STRESS PERIOD      2
 UBDSV06 SAVING       DATA-SPDIS IN MODEL FORMHEAD         PACKAGE NPF             CONNECTED TO MODEL FORMHEAD         PACKAGE NPF              ON UNIT   1012 AT TIME STEP     24, STRESS PERIOD      2
 UBDSV06 SAVING              CHD IN MODEL FORMHEAD         PACKAGE FORMHEAD        CONNECTED TO MODEL FORMHEAD         PACKAGE CHD_0            ON UNIT   1012 AT TIME STEP     24, STRESS PERIOD      2

 HEAD WILL BE SAVED ON UNIT 1013 AT END OF TIME STEP   24, STRESS PERIOD    2

end timestep


start timestep kper="2" kstp="25" mode="normal"

 UBDSV1 SAVING     FLOW-JA-FACE ON UNIT   1012 AT TIME STEP     25, STRESS PERIOD      2
 UBDSV06 SAVING       DATA-SPDIS IN MODEL FORMHEAD         PACKAGE NPF             CONNECTED TO MODEL FORMHEAD         PACKAGE NPF              ON UNIT   1012 AT TIME STEP     25, STRESS PERIOD      2
 UBDSV06 SAVING              CHD IN MODEL FORMHEAD         PACKAGE FORMHEAD        CONNECTED TO MODEL FORMHEAD         PACKAGE CHD_0            ON UNIT   1012 AT TIME STEP     25, STRESS PERIOD      2

 HEAD WILL BE SAVED ON UNIT 1013 AT END OF TIME STEP   25, STRESS PERIOD    2

end timestep


start timestep kper="2" kstp="26" mode="normal"

 UBDSV1 SAVING     FLOW-JA-FACE ON UNIT   1012 AT TIME STEP     26, STRESS PERIOD      2
 UBDSV06 SAVING       DATA-SPDIS IN MODEL FORMHEAD         PACKAGE NPF             CONNECTED TO MODEL FORMHEAD         PACKAGE NPF              ON UNIT   1012 AT TIME STEP     26, STRESS PERIOD      2
 UBDSV06 SAVING              CHD IN MODEL FORMHEAD         PACKAGE FORMHEAD        CONNECTED TO MODEL FORMHEAD         PACKAGE CHD_0            ON UNIT   1012 AT TIME STEP     26, STRESS PERIOD      2

 HEAD WILL BE SAVED ON UNIT 1013 AT END OF TIME STEP   26, STRESS PERIOD    2

end timestep


start timestep kper="2" kstp="27" mode="normal"

 UBDSV1 SAVING     FLOW-JA-FACE ON UNIT   1012 AT TIME STEP     27, STRESS PERIOD      2
 UBDSV06 SAVING       DATA-SPDIS IN MODEL FORMHEAD         PACKAGE NPF             CONNECTED TO MODEL FORMHEAD         PACKAGE NPF              ON UNIT   1012 AT TIME STEP     27, STRESS PERIOD      2
 UBDSV06 SAVING              CHD IN MODEL FORMHEAD         PACKAGE FORMHEAD        CONNECTED TO MODEL FORMHEAD         PACKAGE CHD_0            ON UNIT   1012 AT TIME STEP     27, STRESS PERIOD      2

 HEAD WILL BE SAVED ON UNIT 1013 AT END OF TIME STEP   27, STRESS PERIOD    2

end timestep


start timestep kper="2" kstp="28" mode="normal"

 UBDSV1 SAVING     FLOW-JA-FACE ON UNIT   1012 AT TIME STEP     28, STRESS PERIOD      2
 UBDSV06 SAVING       DATA-SPDIS IN MODEL FORMHEAD         PACKAGE NPF             CONNECTED TO MODEL FORMHEAD         PACKAGE NPF              ON UNIT   1012 AT TIME STEP     28, STRESS PERIOD      2
 UBDSV06 SAVING              CHD IN MODEL FORMHEAD         PACKAGE FORMHEAD        CONNECTED TO MODEL FORMHEAD         PACKAGE CHD_0            ON UNIT   1012 AT TIME STEP     28, STRESS PERIOD      2

 HEAD WILL BE SAVED ON UNIT 1013 AT END OF TIME STEP   28, STRESS PERIOD    2

end timestep


start timestep kper="2" kstp="29" mode="normal"

 UBDSV1 SAVING     FLOW-JA-FACE ON UNIT   1012 AT TIME STEP     29, STRESS PERIOD      2
 UBDSV06 SAVING       DATA-SPDIS IN MODEL FORMHEAD         PACKAGE NPF             CONNECTED TO MODEL FORMHEAD         PACKAGE NPF              ON UNIT   1012 AT TIME STEP     29, STRESS PERIOD      2
 UBDSV06 SAVING              CHD IN MODEL FORMHEAD         PACKAGE FORMHEAD        CONNECTED TO MODEL FORMHEAD         PACKAGE CHD_0            ON UNIT   1012 AT TIME STEP     29, STRESS PERIOD      2

 HEAD WILL BE SAVED ON UNIT 1013 AT END OF TIME STEP   29, STRESS PERIOD    2

end timestep


start timestep kper="2" kstp="30" mode="normal"

 UBDSV1 SAVING     FLOW-JA-FACE ON UNIT   1012 AT TIME STEP     30, STRESS PERIOD      2
 UBDSV06 SAVING       DATA-SPDIS IN MODEL FORMHEAD         PACKAGE NPF             CONNECTED TO MODEL FORMHEAD         PACKAGE NPF              ON UNIT   1012 AT TIME STEP     30, STRESS PERIOD      2
 UBDSV06 SAVING              CHD IN MODEL FORMHEAD         PACKAGE FORMHEAD        CONNECTED TO MODEL FORMHEAD         PACKAGE CHD_0            ON UNIT   1012 AT TIME STEP     30, STRESS PERIOD      2

 HEAD WILL BE SAVED ON UNIT 1013 AT END OF TIME STEP   30, STRESS PERIOD    2

end timestep


start timestep kper="2" kstp="31" mode="normal"

 UBDSV1 SAVING     FLOW-JA-FACE ON UNIT   1012 AT TIME STEP     31, STRESS PERIOD      2
 UBDSV06 SAVING       DATA-SPDIS IN MODEL FORMHEAD         PACKAGE NPF             CONNECTED TO MODEL FORMHEAD         PACKAGE NPF              ON UNIT   1012 AT TIME STEP     31, STRESS PERIOD      2
 UBDSV06 SAVING              CHD IN MODEL FORMHEAD         PACKAGE FORMHEAD        CONNECTED TO MODEL FORMHEAD         PACKAGE CHD_0            ON UNIT   1012 AT TIME STEP     31, STRESS PERIOD      2

 HEAD WILL BE SAVED ON UNIT 1013 AT END OF TIME STEP   31, STRESS PERIOD    2

end timestep


start timestep kper="2" kstp="32" mode="normal"

 UBDSV1 SAVING     FLOW-JA-FACE ON UNIT   1012 AT TIME STEP     32, STRESS PERIOD      2
 UBDSV06 SAVING       DATA-SPDIS IN MODEL FORMHEAD         PACKAGE NPF             CONNECTED TO MODEL FORMHEAD         PACKAGE NPF              ON UNIT   1012 AT TIME STEP     32, STRESS PERIOD      2
 UBDSV06 SAVING              CHD IN MODEL FORMHEAD         PACKAGE FORMHEAD        CONNECTED TO MODEL FORMHEAD         PACKAGE CHD_0            ON UNIT   1012 AT TIME STEP     32, STRESS PERIOD      2

 HEAD WILL BE SAVED ON UNIT 1013 AT END OF TIME STEP   32, STRESS PERIOD    2

end timestep


start timestep kper="2" kstp="33" mode="normal"

 UBDSV1 SAVING     FLOW-JA-FACE ON UNIT   1012 AT TIME STEP     33, STRESS PERIOD      2
 UBDSV06 SAVING       DATA-SPDIS IN MODEL FORMHEAD         PACKAGE NPF             CONNECTED TO MODEL FORMHEAD         PACKAGE NPF              ON UNIT   1012 AT TIME STEP     33, STRESS PERIOD      2
 UBDSV06 SAVING              CHD IN MODEL FORMHEAD         PACKAGE FORMHEAD        CONNECTED TO MODEL FORMHEAD         PACKAGE CHD_0            ON UNIT   1012 AT TIME STEP     33, STRESS PERIOD      2

 HEAD WILL BE SAVED ON UNIT 1013 AT END OF TIME STEP   33, STRESS PERIOD    2

end timestep


start timestep kper="2" kstp="34" mode="normal"

 UBDSV1 SAVING     FLOW-JA-FACE ON UNIT   1012 AT TIME STEP     34, STRESS PERIOD      2
 UBDSV06 SAVING       DATA-SPDIS IN MODEL FORMHEAD         PACKAGE NPF             CONNECTED TO MODEL FORMHEAD         PACKAGE NPF              ON UNIT   1012 AT TIME STEP     34, STRESS PERIOD      2
 UBDSV06 SAVING              CHD IN MODEL FORMHEAD         PACKAGE FORMHEAD        CONNECTED TO MODEL FORMHEAD         PACKAGE CHD_0            ON UNIT   1012 AT TIME STEP     34, STRESS PERIOD      2

 HEAD WILL BE SAVED ON UNIT 1013 AT END OF TIME STEP   34, STRESS PERIOD    2

end timestep


start timestep kper="2" kstp="35" mode="normal"

 UBDSV1 SAVING     FLOW-JA-FACE ON UNIT   1012 AT TIME STEP     35, STRESS PERIOD      2
 UBDSV06 SAVING       DATA-SPDIS IN MODEL FORMHEAD         PACKAGE NPF             CONNECTED TO MODEL FORMHEAD         PACKAGE NPF              ON UNIT   1012 AT TIME STEP     35, STRESS PERIOD      2
 UBDSV06 SAVING              CHD IN MODEL FORMHEAD         PACKAGE FORMHEAD        CONNECTED TO MODEL FORMHEAD         PACKAGE CHD_0            ON UNIT   1012 AT TIME STEP     35, STRESS PERIOD      2

 HEAD WILL BE SAVED ON UNIT 1013 AT END OF TIME STEP   35, STRESS PERIOD    2

end timestep


start timestep kper="2" kstp="36" mode="normal"

 UBDSV1 SAVING     FLOW-JA-FACE ON UNIT   1012 AT TIME STEP     36, STRESS PERIOD      2
 UBDSV06 SAVING       DATA-SPDIS IN MODEL FORMHEAD         PACKAGE NPF             CONNECTED TO MODEL FORMHEAD         PACKAGE NPF              ON UNIT   1012 AT TIME STEP     36, STRESS PERIOD      2
 UBDSV06 SAVING              CHD IN MODEL FORMHEAD         PACKAGE FORMHEAD        CONNECTED TO MODEL FORMHEAD         PACKAGE CHD_0            ON UNIT   1012 AT TIME STEP     36, STRESS PERIOD      2

 HEAD WILL BE SAVED ON UNIT 1013 AT END OF TIME STEP   36, STRESS PERIOD    2

end timestep


start timestep kper="2" kstp="37" mode="normal"

 UBDSV1 SAVING     FLOW-JA-FACE ON UNIT   1012 AT TIME STEP     37, STRESS PERIOD      2
 UBDSV06 SAVING       DATA-SPDIS IN MODEL FORMHEAD         PACKAGE NPF             CONNECTED TO MODEL FORMHEAD         PACKAGE NPF              ON UNIT   1012 AT TIME STEP     37, STRESS PERIOD      2
 UBDSV06 SAVING              CHD IN MODEL FORMHEAD         PACKAGE FORMHEAD        CONNECTED TO MODEL FORMHEAD         PACKAGE CHD_0            ON UNIT   1012 AT TIME STEP     37, STRESS PERIOD      2

 HEAD WILL BE SAVED ON UNIT 1013 AT END OF TIME STEP   37, STRESS PERIOD    2

end timestep


start timestep kper="2" kstp="38" mode="normal"

 UBDSV1 SAVING     FLOW-JA-FACE ON UNIT   1012 AT TIME STEP     38, STRESS PERIOD      2
 UBDSV06 SAVING       DATA-SPDIS IN MODEL FORMHEAD         PACKAGE NPF             CONNECTED TO MODEL FORMHEAD         PACKAGE NPF              ON UNIT   1012 AT TIME STEP     38, STRESS PERIOD      2
 UBDSV06 SAVING              CHD IN MODEL FORMHEAD         PACKAGE FORMHEAD        CONNECTED TO MODEL FORMHEAD         PACKAGE CHD_0            ON UNIT   1012 AT TIME STEP     38, STRESS PERIOD      2

 HEAD WILL BE SAVED ON UNIT 1013 AT END OF TIME STEP   38, STRESS PERIOD    2

end timestep


start timestep kper="2" kstp="39" mode="normal"

 UBDSV1 SAVING     FLOW-JA-FACE ON UNIT   1012 AT TIME STEP     39, STRESS PERIOD      2
 UBDSV06 SAVING       DATA-SPDIS IN MODEL FORMHEAD         PACKAGE NPF             CONNECTED TO MODEL FORMHEAD         PACKAGE NPF              ON UNIT   1012 AT TIME STEP     39, STRESS PERIOD      2
 UBDSV06 SAVING              CHD IN MODEL FORMHEAD         PACKAGE FORMHEAD        CONNECTED TO MODEL FORMHEAD         PACKAGE CHD_0            ON UNIT   1012 AT TIME STEP     39, STRESS PERIOD      2

 HEAD WILL BE SAVED ON UNIT 1013 AT END OF TIME STEP   39, STRESS PERIOD    2

end timestep


start timestep kper="2" kstp="40" mode="normal"

 UBDSV1 SAVING     FLOW-JA-FACE ON UNIT   1012 AT TIME STEP     40, STRESS PERIOD      2
 UBDSV06 SAVING       DATA-SPDIS IN MODEL FORMHEAD         PACKAGE NPF             CONNECTED TO MODEL FORMHEAD         PACKAGE NPF              ON UNIT   1012 AT TIME STEP     40, STRESS PERIOD      2
 UBDSV06 SAVING              CHD IN MODEL FORMHEAD         PACKAGE FORMHEAD        CONNECTED TO MODEL FORMHEAD         PACKAGE CHD_0            ON UNIT   1012 AT TIME STEP     40, STRESS PERIOD      2

 HEAD WILL BE SAVED ON UNIT 1013 AT END OF TIME STEP   40, STRESS PERIOD    2

end timestep


start timestep kper="2" kstp="41" mode="normal"

 UBDSV1 SAVING     FLOW-JA-FACE ON UNIT   1012 AT TIME STEP     41, STRESS PERIOD      2
 UBDSV06 SAVING       DATA-SPDIS IN MODEL FORMHEAD         PACKAGE NPF             CONNECTED TO MODEL FORMHEAD         PACKAGE NPF              ON UNIT   1012 AT TIME STEP     41, STRESS PERIOD      2
 UBDSV06 SAVING              CHD IN MODEL FORMHEAD         PACKAGE FORMHEAD        CONNECTED TO MODEL FORMHEAD         PACKAGE CHD_0            ON UNIT   1012 AT TIME STEP     41, STRESS PERIOD      2

 HEAD WILL BE SAVED ON UNIT 1013 AT END OF TIME STEP   41, STRESS PERIOD    2

end timestep


start timestep kper="2" kstp="42" mode="normal"

 UBDSV1 SAVING     FLOW-JA-FACE ON UNIT   1012 AT TIME STEP     42, STRESS PERIOD      2
 UBDSV06 SAVING       DATA-SPDIS IN MODEL FORMHEAD         PACKAGE NPF             CONNECTED TO MODEL FORMHEAD         PACKAGE NPF              ON UNIT   1012 AT TIME STEP     42, STRESS PERIOD      2
 UBDSV06 SAVING              CHD IN MODEL FORMHEAD         PACKAGE FORMHEAD        CONNECTED TO MODEL FORMHEAD         PACKAGE CHD_0            ON UNIT   1012 AT TIME STEP     42, STRESS PERIOD      2

 HEAD WILL BE SAVED ON UNIT 1013 AT END OF TIME STEP   42, STRESS PERIOD    2

end timestep


start timestep kper="2" kstp="43" mode="normal"

 UBDSV1 SAVING     FLOW-JA-FACE ON UNIT   1012 AT TIME STEP     43, STRESS PERIOD      2
 UBDSV06 SAVING       DATA-SPDIS IN MODEL FORMHEAD         PACKAGE NPF             CONNECTED TO MODEL FORMHEAD         PACKAGE NPF              ON UNIT   1012 AT TIME STEP     43, STRESS PERIOD      2
 UBDSV06 SAVING              CHD IN MODEL FORMHEAD         PACKAGE FORMHEAD        CONNECTED TO MODEL FORMHEAD         PACKAGE CHD_0            ON UNIT   1012 AT TIME STEP     43, STRESS PERIOD      2

 HEAD WILL BE SAVED ON UNIT 1013 AT END OF TIME STEP   43, STRESS PERIOD    2

end timestep


start timestep kper="2" kstp="44" mode="normal"

 UBDSV1 SAVING     FLOW-JA-FACE ON UNIT   1012 AT TIME STEP     44, STRESS PERIOD      2
 UBDSV06 SAVING       DATA-SPDIS IN MODEL FORMHEAD         PACKAGE NPF             CONNECTED TO MODEL FORMHEAD         PACKAGE NPF              ON UNIT   1012 AT TIME STEP     44, STRESS PERIOD      2
 UBDSV06 SAVING              CHD IN MODEL FORMHEAD         PACKAGE FORMHEAD        CONNECTED TO MODEL FORMHEAD         PACKAGE CHD_0            ON UNIT   1012 AT TIME STEP     44, STRESS PERIOD      2

 HEAD WILL BE SAVED ON UNIT 1013 AT END OF TIME STEP   44, STRESS PERIOD    2

end timestep


start timestep kper="2" kstp="45" mode="normal"

 UBDSV1 SAVING     FLOW-JA-FACE ON UNIT   1012 AT TIME STEP     45, STRESS PERIOD      2
 UBDSV06 SAVING       DATA-SPDIS IN MODEL FORMHEAD         PACKAGE NPF             CONNECTED TO MODEL FORMHEAD         PACKAGE NPF              ON UNIT   1012 AT TIME STEP     45, STRESS PERIOD      2
 UBDSV06 SAVING              CHD IN MODEL FORMHEAD         PACKAGE FORMHEAD        CONNECTED TO MODEL FORMHEAD         PACKAGE CHD_0            ON UNIT   1012 AT TIME STEP     45, STRESS PERIOD      2

 HEAD WILL BE SAVED ON UNIT 1013 AT END OF TIME STEP   45, STRESS PERIOD    2

end timestep


start timestep kper="2" kstp="46" mode="normal"

 UBDSV1 SAVING     FLOW-JA-FACE ON UNIT   1012 AT TIME STEP     46, STRESS PERIOD      2
 UBDSV06 SAVING       DATA-SPDIS IN MODEL FORMHEAD         PACKAGE NPF             CONNECTED TO MODEL FORMHEAD         PACKAGE NPF              ON UNIT   1012 AT TIME STEP     46, STRESS PERIOD      2
 UBDSV06 SAVING              CHD IN MODEL FORMHEAD         PACKAGE FORMHEAD        CONNECTED TO MODEL FORMHEAD         PACKAGE CHD_0            ON UNIT   1012 AT TIME STEP     46, STRESS PERIOD      2

 HEAD WILL BE SAVED ON UNIT 1013 AT END OF TIME STEP   46, STRESS PERIOD    2

end timestep


start timestep kper="2" kstp="47" mode="normal"

 UBDSV1 SAVING     FLOW-JA-FACE ON UNIT   1012 AT TIME STEP     47, STRESS PERIOD      2
 UBDSV06 SAVING       DATA-SPDIS IN MODEL FORMHEAD         PACKAGE NPF             CONNECTED TO MODEL FORMHEAD         PACKAGE NPF              ON UNIT   1012 AT TIME STEP     47, STRESS PERIOD      2
 UBDSV06 SAVING              CHD IN MODEL FORMHEAD         PACKAGE FORMHEAD        CONNECTED TO MODEL FORMHEAD         PACKAGE CHD_0            ON UNIT   1012 AT TIME STEP     47, STRESS PERIOD      2

 HEAD WILL BE SAVED ON UNIT 1013 AT END OF TIME STEP   47, STRESS PERIOD    2

end timestep


start timestep kper="2" kstp="48" mode="normal"

 UBDSV1 SAVING     FLOW-JA-FACE ON UNIT   1012 AT TIME STEP     48, STRESS PERIOD      2
 UBDSV06 SAVING       DATA-SPDIS IN MODEL FORMHEAD         PACKAGE NPF             CONNECTED TO MODEL FORMHEAD         PACKAGE NPF              ON UNIT   1012 AT TIME STEP     48, STRESS PERIOD      2
 UBDSV06 SAVING              CHD IN MODEL FORMHEAD         PACKAGE FORMHEAD        CONNECTED TO MODEL FORMHEAD         PACKAGE CHD_0            ON UNIT   1012 AT TIME STEP     48, STRESS PERIOD      2

 HEAD WILL BE SAVED ON UNIT 1013 AT END OF TIME STEP   48, STRESS PERIOD    2

end timestep


start timestep kper="2" kstp="49" mode="normal"

 UBDSV1 SAVING     FLOW-JA-FACE ON UNIT   1012 AT TIME STEP     49, STRESS PERIOD      2
 UBDSV06 SAVING       DATA-SPDIS IN MODEL FORMHEAD         PACKAGE NPF             CONNECTED TO MODEL FORMHEAD         PACKAGE NPF              ON UNIT   1012 AT TIME STEP     49, STRESS PERIOD      2
 UBDSV06 SAVING              CHD IN MODEL FORMHEAD         PACKAGE FORMHEAD        CONNECTED TO MODEL FORMHEAD         PACKAGE CHD_0            ON UNIT   1012 AT TIME STEP     49, STRESS PERIOD      2

 HEAD WILL BE SAVED ON UNIT 1013 AT END OF TIME STEP   49, STRESS PERIOD    2

end timestep


start timestep kper="2" kstp="50" mode="normal"

 UBDSV1 SAVING     FLOW-JA-FACE ON UNIT   1012 AT TIME STEP     50, STRESS PERIOD      2
 UBDSV06 SAVING       DATA-SPDIS IN MODEL FORMHEAD         PACKAGE NPF             CONNECTED TO MODEL FORMHEAD         PACKAGE NPF              ON UNIT   1012 AT TIME STEP     50, STRESS PERIOD      2
 UBDSV06 SAVING              CHD IN MODEL FORMHEAD         PACKAGE FORMHEAD        CONNECTED TO MODEL FORMHEAD         PACKAGE CHD_0            ON UNIT   1012 AT TIME STEP     50, STRESS PERIOD      2
1
  HEAD IN LAYER   1 AT END OF TIME STEP  50 IN STRESS PERIOD    2
  ---------------------------------------------------------------------------

            1           2           3           4           5           6           7           8           9          10
 ........................................................................................................................
   1    10.00       9.444       8.889       8.333       7.778       7.222       6.667       6.111       5.556       5.000    
   2    10.00       9.444       8.889       8.333       7.778       7.222       6.667       6.111       5.556       5.000    
   3    10.00       9.444       8.889       8.333       7.778       7.222       6.667       6.111       5.556       5.000    
   4    10.00       9.444       8.889       8.333       7.778       7.222       6.667       6.111       5.556       5.000    
   5    10.00       9.444       8.889       8.333       7.778       7.222       6.667       6.111       5.556       5.000    
   6    10.00       9.444       8.889       8.333       7.778       7.222       6.667       6.111       5.556       5.000    
   7    10.00       9.444       8.889       8.333       7.778       7.222       6.667       6.111       5.556       5.000    
   8    10.00       9.444       8.889       8.333       7.778       7.222       6.667       6.111       5.556       5.000    
   9    10.00       9.444       8.889       8.333       7.778       7.222       6.667       6.111       5.556       5.000    
  10    10.00       9.444       8.889       8.333       7.778       7.222       6.667       6.111       5.556       5.000    
  11    10.00       9.444       8.889       8.333       7.778       7.222       6.667       6.111       5.556       5.000    
  12    10.00       9.444       8.889       8.333       7.778       7.222       6.667       6.111       5.556       5.000    
  13    10.00       9.444       8.889       8.333       7.778       7.222       6.667       6.111       5.556       5.000    
  14    10.00       9.444       8.889       8.333       7.778       7.222       6.667       6.111       5.556       5.000    
  15    10.00       9.444       8.889       8.333       7.778       7.222       6.667       6.111       5.556       5.000    

 HEAD WILL BE SAVED ON UNIT 1013 AT END OF TIME STEP   50, STRESS PERIOD    2


  VOLUME BUDGET FOR ENTIRE MODEL AT END OF TIME STEP   50, STRESS PERIOD   2
  ---------------------------------------------------------------------------------------------------

     CUMULATIVE VOLUME      L**3       RATES FOR THIS TIME STEP      L**3/T          PACKAGE NAME    
     ------------------                 ------------------------                     ----------------

           IN:                                      IN:
           ---                                      ---
                 CHD =    72000833.3345                   CHD =         833.3333     CHD_0                            

            TOTAL IN =    72000833.3345              TOTAL IN =         833.3333

          OUT:                                     OUT:
          ----                                     ----
                 CHD =    72000833.3333                   CHD =         833.3333     CHD_0                            

           TOTAL OUT =    72000833.3333             TOTAL OUT =         833.3333

            IN - OUT =       1.2084E-03              IN - OUT =       2.9739E-09

 PERCENT DISCREPANCY =           0.00     PERCENT DISCREPANCY =           0.00




         TIME SUMMARY AT END OF TIME STEP   50 IN STRESS PERIOD    2
                          TIME STEP LENGTH =    1728.00    
                        STRESS PERIOD TIME =    86400.0    
                     TOTAL SIMULATION TIME =    86401.0    

end timestep

