                                  MODFLOW-2005     
      U.S. GEOLOGICAL SURVEY MODULAR FINITE-DIFFERENCE GROUND-WATER FLOW MODEL
                            VERSION 1.12.00 2/3/2017

 LIST FILE: dis_variable.list
                         UNIT    2

 OPENING dis_variable.dis
 FILE TYPE:DIS   UNIT   11   STATUS:OLD    
 FORMAT:FORMATTED              ACCESS:SEQUENTIAL          

 OPENING dis_variable.bas
 FILE TYPE:BAS6   UNIT   13   STATUS:OLD    
 FORMAT:FORMATTED              ACCESS:SEQUENTIAL          

 OPENING dis_variable.lpf
 FILE TYPE:LPF   UNIT   15   STATUS:OLD    
 FORMAT:FORMATTED              ACCESS:SEQUENTIAL          

 OPENING dis_variable.wel
 FILE TYPE:WEL   UNIT   20   STATUS:OLD    
 FORMAT:FORMATTED              ACCESS:SEQUENTIAL          

 OPENING dis_variable.oc
 FILE TYPE:OC   UNIT   14   STATUS:OLD    
 FORMAT:FORMATTED              ACCESS:SEQUENTIAL          

 OPENING dis_variable.pcg
 FILE TYPE:PCG   UNIT   27   STATUS:OLD    
 FORMAT:FORMATTED              ACCESS:SEQUENTIAL          

 OPENING dis_variable.hds
 FILE TYPE:DATA(BINARY)   UNIT   51   STATUS:REPLACE
 FORMAT:UNFORMATTED            ACCESS:STREAM              

 BAS -- BASIC PACKAGE, VERSION 7, 5/2/2005 INPUT READ FROM UNIT   13
 
 MODFLOW was compiled using mixed precision
 Precision of REAL variables:           6
 Precision of DOUBLE PRECISION variables:          15

 DISCRETIZATION INPUT DATA READ FROM UNIT   11
 # DIS package for MODFLOW-2005 generated by Flopy 3.9.3
    1 LAYERS        11 ROWS        21 COLUMNS
    1 STRESS PERIOD(S) IN SIMULATION
 MODEL TIME UNIT IS DAYS
 MODEL LENGTH UNIT IS METERS
  Confining bed flag for each layer:
   0



                               DELR
 READING ON UNIT   11 WITH FORMAT: (21E15.6)           



                               DELC
 READING ON UNIT   11 WITH FORMAT: (11E15.6)           

 TOP ELEVATION OF LAYER 1 =   30.0000    

   MODEL LAYER BOTTOM EL. =   0.00000     FOR LAYER   1


 STRESS PERIOD     LENGTH       TIME STEPS     MULTIPLIER FOR DELT    SS FLAG
 ----------------------------------------------------------------------------
        1         1.000000          1                    1.000         SS

 STEADY-STATE SIMULATION



 
 # BAS6 package for MODFLOW-2005 generated by Flopy 3.9.3                        
 THE FREE FORMAT OPTION HAS BEEN SELECTED

           BOUNDARY ARRAY =              1 FOR LAYER   1

 AQUIFER HEAD WILL BE SET TO  -999.99     AT ALL NO-FLOW NODES (IBOUND=0).

             INITIAL HEAD =   1.00000     FOR LAYER   1
 # OC package for MODFLOW-2005 generated by Flopy 3.9.3

 OUTPUT CONTROL IS SPECIFIED ONLY AT TIME STEPS FOR WHICH OUTPUT IS DESIRED
 COMPACT CELL-BY-CELL BUDGET FILES WILL BE WRITTEN
 AUXILIARY DATA WILL BE SAVED IN CELL-BY-CELL BUDGET FILES
 HEAD PRINT FORMAT CODE IS   0    DRAWDOWN PRINT FORMAT CODE IS   0
 HEADS WILL BE SAVED ON UNIT   51    DRAWDOWNS WILL BE SAVED ON UNIT    0

 LPF -- LAYER-PROPERTY FLOW PACKAGE, VERSION 7, 5/2/2005
         INPUT READ FROM UNIT   15
 # LPF package for MODFLOW-2005 generated by Flopy 3.9.3
 HEAD AT CELLS THAT CONVERT TO DRY= -1.00000E+30
 No named parameters

   LAYER FLAGS:
 LAYER       LAYTYP        LAYAVG         CHANI        LAYVKA        LAYWET
 ---------------------------------------------------------------------------
    1             0             0     1.000E+00             0             0

   INTERPRETATION OF LAYER FLAGS:
                        INTERBLOCK     HORIZONTAL    DATA IN
         LAYER TYPE   TRANSMISSIVITY   ANISOTROPY   ARRAY VKA   WETTABILITY
 LAYER      (LAYTYP)      (LAYAVG)       (CHANI)      (LAYVKA)      (LAYWET)
 ---------------------------------------------------------------------------
    1      CONFINED      HARMONIC     1.000E+00    VERTICAL K  NON-WETTABLE

 WETTING CAPABILITY IS NOT ACTIVE IN ANY LAYER

    HYD. COND. ALONG ROWS =   2.00000     FOR LAYER   1

      VERTICAL HYD. COND. =   1.00000     FOR LAYER   1

 WEL -- WELL PACKAGE, VERSION 7, 5/2/2005 INPUT READ FROM UNIT   20
 # WEL package for MODFLOW-2005 generated by Flopy 3.9.3
 No named parameters
 MAXIMUM OF      1 ACTIVE WELLS AT ONE TIME


     0 Well parameters

 PCG -- CONJUGATE-GRADIENT SOLUTION PACKAGE, VERSION 7, 5/2/2005
 # PCG package for MODFLOW-2005 generated by Flopy 3.9.3
 MAXIMUM OF     50 CALLS OF SOLUTION ROUTINE
 MAXIMUM OF     30 INTERNAL ITERATIONS PER CALL TO SOLUTION ROUTINE
 MATRIX PRECONDITIONING TYPE :    1



                                    SOLUTION BY THE CONJUGATE-GRADIENT METHOD
                                   -------------------------------------------
                    MAXIMUM NUMBER OF CALLS TO PCG ROUTINE =       50
                        MAXIMUM ITERATIONS PER CALL TO PCG =       30
                               MATRIX PRECONDITIONING TYPE =        1
        RELAXATION FACTOR (ONLY USED WITH PRECOND. TYPE 1) =    0.10000E+01
 PARAMETER OF POLYNOMIAL PRECOND. = 2 (2) OR IS CALCULATED :        0
                         HEAD CHANGE CRITERION FOR CLOSURE =    0.10000E-04
                     RESIDUAL CHANGE CRITERION FOR CLOSURE =    0.10000E-04
            PCG HEAD AND RESIDUAL CHANGE PRINTOUT INTERVAL =      999
     PRINTING FROM SOLVER IS LIMITED(1) OR SUPPRESSED (>1) =        3
                            STEADY-STATE DAMPING PARAMETER =    0.10000E+01
                               TRANSIENT DAMPING PARAMETER =    0.10000E+01
1
                            STRESS PERIOD NO.    1, LENGTH =   1.000000    
                            -----------------------------------------------

                              NUMBER OF TIME STEPS =     1

                               MULTIPLIER FOR DELT =     1.000

                            INITIAL TIME STEP SIZE =   1.000000    

 WELL NO.  LAYER   ROW   COL   STRESS RATE         
 --------------------------------------------------
      1      1      6     11      -100.0    

      1 WELL 
 
 SOLVING FOR HEAD 

 MAXIMUM HEAD CHANGE FOR EACH ITERATION (1 INDICATES THE FIRST INNER ITERATION):

    HEAD CHANGE    HEAD CHANGE    HEAD CHANGE    HEAD CHANGE    HEAD CHANGE 
   LAYER,ROW,COL  LAYER,ROW,COL  LAYER,ROW,COL  LAYER,ROW,COL  LAYER,ROW,COL
 ---------------------------------------------------------------------------
  1  -1.469      0  -2.542      0  -4.854      0  -20.27      0  -68.64    
   (  1,  6, 11)  (  1,  6, 11)  (  1,  6, 11)  (  1,  7,  9)  (  1,  5, 12)
  0  -270.8      0  -1424.      0  -4310.      0 -0.3167E+05  0 -0.1444E+06
   (  1,  3, 13)  (  1,  8,  8)  (  1,  4, 13)  (  1,  1, 21)  (  1, 11,  2)
  0 -0.5493E+06  0 -0.5735E+07  0 -0.2172E+08  0 -0.9529E+08  0 -0.6995E+09
   (  1,  5, 15)  (  1,  1, 15)  (  1, 10,  8)  (  1,  1, 16)  (  1,  6, 12)
  0 -0.3284E+10  0 -0.2672E+11  0 -0.1427E+12  0 -0.8123E+12  0 -0.4931E+13
   (  1,  6, 12)  (  1,  7,  8)  (  1,  2, 18)  (  1, 10, 10)  (  1, 11,  1)
  0 -0.1056E+14  0 -0.1201E+15  0 -0.6513E+15  0 -0.5961E+16  0 -0.3825E+17
   (  1,  9, 11)  (  1, 10,  3)  (  1,  1,  3)  (  1, 11,  3)  (  1, 11,  4)
  0 -0.7187E+17  0 -0.7917E+18  0 -0.2929E+19  0 -0.9586E+19  0 -0.6146E+20
   (  1,  1,  1)  (  1, 11, 21)  (  1, 11, 21)  (  1,  1,  1)  (  1,  1,  1)
  1  0.2086E+10  0 -0.1872E+10  0  0.8953E+09  0  0.6539E+09  0  0.1765E+09
   (  1, 11,  1)  (  1,  3, 21)  (  1,  5,  1)  (  1,  1,  9)  (  1,  2,  2)
  0 -0.1244E+09  0  0.4376E+08  0 -0.1013E+08  0  0.8543E+07  0 -0.3470E+07
   (  1,  2, 21)  (  1,  5,  2)  (  1,  9, 18)  (  1,  9,  1)  (  1,  5,  1)
  0  0.1100E+07  0 -0.6082E+06  0  0.2324E+06  0 -0.1170E+06  0  0.3846E+05
   (  1, 11,  1)  (  1,  6, 20)  (  1,  5, 19)  (  1,  7, 18)  (  1, 11,  3)
  0 -0.1585E+05  0  -8226.      0  -3176.      0  -1846.      0  -683.8    
   (  1,  5,  2)  (  1,  9, 20)  (  1, 10,  2)  (  1,  1, 21)  (  1,  4,  1)
  0  -280.3      0  -138.1      0  -108.1      0  -84.31      0  -247.9    
   (  1,  8, 21)  (  1,  5,  3)  (  1,  3, 21)  (  1, 10, 19)  (  1,  1, 21)
  0  -868.8      0  -3690.      0 -0.1047E+05  0 -0.4480E+05  0 -0.2085E+06
   (  1,  3,  9)  (  1,  5,  1)  (  1,  4,  8)  (  1,  5,  1)  (  1,  2,  4)
  1  0.1079E+06  0 -0.1009E+06  0  0.3878E+05  0  0.1240E+05  0  -5362.    
   (  1, 10,  3)  (  1, 10,  1)  (  1, 11,  1)  (  1,  6,  7)  (  1,  7,  9)
  0  -2956.      0   1635.      0  -871.6      0   449.2      0  -234.2    
   (  1,  5,  3)  (  1, 10,  1)  (  1,  1, 19)  (  1,  2, 21)  (  1,  1, 21)
  0   85.85      0  -21.48      0  -15.97      0  -6.775      0  -3.790    
   (  1,  1, 21)  (  1,  2, 21)  (  1,  7, 20)  (  1, 11,  1)  (  1,  4, 21)
  0  -1.418      0  -1.267      0  -2.336      0  -9.758      0  -46.38    
   (  1,  6,  9)  (  1,  6, 20)  (  1, 10, 20)  (  1, 11, 15)  (  1, 11, 18)
  0  -283.2      0  -1521.      0  -3794.      0 -0.1699E+05  0 -0.9253E+05
   (  1,  9, 21)  (  1,  9, 20)  (  1, 11, 19)  (  1,  3, 20)  (  1, 11, 17)
  0 -0.8885E+06  0 -0.2876E+07  0 -0.1223E+08  0 -0.9759E+08  0 -0.4065E+09
   (  1,  6, 19)  (  1,  1, 21)  (  1,  5, 16)  (  1,  9,  9)  (  1, 10, 10)
  1  0.7055E+05  0 -0.6466E+05  0  0.2700E+05  0  -9207.      0   5033.    
   (  1,  4, 21)  (  1,  2, 20)  (  1,  1, 21)  (  1,  6,  4)  (  1,  5,  4)
  0  -1674.      0  -802.7      0  -367.7      0   175.9      0  -120.4    
   (  1,  4,  3)  (  1,  5,  9)  (  1,  1, 11)  (  1,  5, 18)  (  1, 11,  1)
  0   47.87      0  -22.70      0   13.85      0  -6.739      0  -4.133    
   (  1, 11,  4)  (  1,  4,  1)  (  1,  1, 21)  (  1,  1,  8)  (  1, 11,  1)
  0  -1.656      0  -1.842      0  -2.818      0  -9.147      0  -40.45    
   (  1,  3,  4)  (  1,  5,  2)  (  1,  9,  1)  (  1,  1,  4)  (  1,  6,  2)
  0  -240.3      0  -2050.      0 -0.1196E+05  0 -0.4609E+05  0 -0.1729E+06
   (  1,  5,  9)  (  1,  6,  1)  (  1,  3,  4)  (  1,  2,  9)  (  1,  1, 21)
  0 -0.1444E+07  0 -0.1320E+08  0 -0.7264E+08  0 -0.1643E+09  0 -0.9451E+09
   (  1,  3, 10)  (  1,  9,  9)  (  1, 11,  3)  (  1,  4,  6)  (  1, 10,  3)
  1  0.4775E+05  0 -0.3613E+05  0  0.2584E+05  0 -0.1309E+05  0   6161.    
   (  1,  4, 17)  (  1,  5, 19)  (  1,  7,  2)  (  1, 10,  2)  (  1, 11,  1)
  0  -2934.      0   1333.      0  -498.5      0   253.1      0  -105.4    
   (  1,  2, 21)  (  1,  2, 19)  (  1,  3, 21)  (  1,  5,  5)  (  1,  3,  4)
  0  -42.37      0   22.16      0  -12.21      0  -6.105      0  -2.136    
   (  1,  1,  9)  (  1, 11,  1)  (  1,  6,  1)  (  1,  1, 21)  (  1,  3,  2)
  0  -1.192      0  -1.768      0  -4.853      0  -22.44      0  -123.4    
   (  1, 10,  8)  (  1, 10, 18)  (  1, 10,  1)  (  1,  5, 10)  (  1, 10, 21)
  0  -802.3      0  -5632.      0 -0.1162E+05  0 -0.7302E+05  0 -0.5410E+06
   (  1, 11, 14)  (  1, 10, 18)  (  1,  7, 20)  (  1,  9, 21)  (  1, 11, 15)
  0 -0.4287E+07  0 -0.2015E+08  0 -0.4545E+08  0 -0.2935E+09  0 -0.1687E+10
   (  1, 11, 20)  (  1,  7, 18)  (  1,  1, 21)  (  1, 11, 17)  (  1, 11, 13)
  1 -0.5189E+05  0  0.5696E+05  0 -0.2312E+05  0   7727.      0   6283.    
   (  1,  1, 21)  (  1,  1, 21)  (  1,  5,  1)  (  1, 11,  2)  (  1,  1, 21)
  0  -1694.      0  -900.5      0  -488.3      0  -258.7      0   96.83    
   (  1,  5, 11)  (  1,  2,  9)  (  1,  2,  2)  (  1,  8,  1)  (  1, 11,  5)
  0   75.51      0  -23.49      0  -13.43      0  -6.978      0  -3.024    
   (  1,  2, 21)  (  1,  1,  8)  (  1,  2,  4)  (  1,  5,  3)  (  1,  1,  9)
  0  -1.729      0  -1.554      0  -2.536      0  -12.42      0  -49.29    
   (  1,  5,  5)  (  1,  2,  9)  (  1,  2,  3)  (  1, 10,  2)  (  1,  5,  9)
  0  -286.1      0  -1804.      0  -3724.      0 -0.2731E+05  0 -0.2053E+06
   (  1,  5,  7)  (  1, 11,  1)  (  1,  5,  8)  (  1,  1,  9)  (  1,  3,  9)
  0 -0.1225E+07  0 -0.3114E+07  0 -0.3109E+08  0 -0.2281E+09  0 -0.1264E+10
   (  1,  3, 21)  (  1,  5, 16)  (  1,  1, 20)  (  1,  9,  9)  (  1, 11,  8)
  1  0.4727E+05  0 -0.3928E+05  0  0.2342E+05  0  -7491.      0   3757.    
   (  1, 11,  1)  (  1, 10,  2)  (  1, 11,  3)  (  1,  7,  2)  (  1,  5, 13)
  0  -1957.      0   1168.      0  -491.5      0  -199.2      0  -72.39    
   (  1,  2, 21)  (  1,  1, 21)  (  1,  1, 21)  (  1, 10,  1)  (  1,  4,  4)
  0  -39.08      0  -24.72      0  -8.689      0  -3.268      0  -1.700    
   (  1,  2, 20)  (  1,  5,  2)  (  1,  8, 21)  (  1,  6,  7)  (  1,  1,  8)
  0  -1.271      0  -1.507      0  -3.906      0  -13.50      0  -96.67    
   (  1,  5,  1)  (  1,  7, 19)  (  1,  1,  5)  (  1, 11,  1)  (  1,  2,  2)
  0  -530.7      0  -1048.      0 -0.1227E+05  0 -0.8386E+05  0 -0.5489E+06
   (  1,  6,  1)  (  1,  3,  6)  (  1,  3,  2)  (  1,  1,  6)  (  1,  2,  1)
  0 -0.3148E+07  0 -0.8288E+07  0 -0.6422E+08  0 -0.4631E+09  0 -0.3815E+10
   (  1,  2,  1)  (  1,  2,  9)  (  1,  1,  4)  (  1,  4,  4)  (  1,  6,  2)
  1  0.5577E+05  0  0.4018E+05  0 -0.1921E+05  0  0.1233E+05  0   3144.    
   (  1,  5,  9)  (  1,  5,  2)  (  1,  3, 20)  (  1, 11,  1)  (  1,  5,  6)
  0  -2172.      0  -732.8      0  -584.0      0  -207.1      0  -166.0    
   (  1,  1, 21)  (  1,  3,  9)  (  1,  4, 20)  (  1, 10, 19)  (  1,  1, 21)
  0  -54.53      0   26.45      0  -17.59      0   6.041      0  -4.268    
   (  1,  5, 19)  (  1,  4,  5)  (  1,  5, 18)  (  1,  1,  9)  (  1,  1, 21)
  0  -1.966      0  -1.431      0  -2.435      0  -11.53      0  -56.98    
   (  1, 11, 12)  (  1,  8, 21)  (  1,  5, 16)  (  1,  5, 17)  (  1, 11,  2)
  0  -187.0      0  -746.2      0  -4206.      0 -0.3784E+05  0 -0.2569E+06
   (  1,  7, 11)  (  1,  4, 20)  (  1,  6,  7)  (  1,  1, 12)  (  1,  2,  9)
  0 -0.1423E+07  0 -0.4456E+07  0 -0.2505E+08  0 -0.2440E+09  0 -0.1749E+10
   (  1,  1, 20)  (  1,  3,  9)  (  1,  3, 21)  (  1,  1,  9)  (  1,  1, 21)
  1  0.4008E+05  0 -0.4537E+05  0  0.2346E+05  0   8435.      0  -3100.    
   (  1, 10,  2)  (  1, 11,  1)  (  1, 11,  1)  (  1,  7, 10)  (  1,  4,  8)
  0   1669.      0  -900.8      0   282.4      0   160.8      0  -96.07    
   (  1,  1, 21)  (  1,  1, 21)  (  1,  7, 11)  (  1,  2, 17)  (  1,  1, 20)
  0   49.00      0   13.98      0  -7.585      0  -3.064      0  -2.130    
   (  1,  1, 21)  (  1,  2, 10)  (  1,  4, 19)  (  1, 10,  2)  (  1,  7, 20)
  0  -1.611      0  -1.912      0  -5.892      0  -35.40      0  -219.6    
   (  1, 11,  1)  (  1, 11, 19)  (  1, 11, 19)  (  1,  9, 21)  (  1, 11, 14)
  0  -977.5      0  -7763.      0 -0.1522E+05  0 -0.7124E+05  0 -0.5376E+06
   (  1, 10, 19)  (  1,  6, 20)  (  1, 11, 17)  (  1,  1, 21)  (  1,  7, 21)
  0 -0.3140E+07  0 -0.2314E+08  0 -0.4998E+08  0 -0.3035E+09  0 -0.1536E+10
   (  1,  9, 18)  (  1,  1, 19)  (  1,  5, 15)  (  1,  1, 21)  (  1, 11,  7)
  1 -0.5571E+05  0  0.6205E+05  0 -0.1944E+05  0   9784.      0  -5512.    
   (  1,  1, 20)  (  1,  1, 21)  (  1, 11,  2)  (  1, 11,  5)  (  1,  5,  2)
  0  -2982.      0  -843.8      0  -428.8      0   351.1      0  -127.2    
   (  1,  5,  9)  (  1,  1,  8)  (  1,  5,  7)  (  1,  1, 21)  (  1,  2, 21)
  0  -79.67      0   27.21      0  -13.86      0  -7.362      0  -3.049    
   (  1,  5,  1)  (  1, 11,  1)  (  1, 10,  1)  (  1,  4,  2)  (  1,  1,  7)
  0  -2.561      0  -1.585      0  -2.429      0  -7.377      0  -42.50    
   (  1,  5,  1)  (  1,  2,  3)  (  1,  5,  2)  (  1,  1,  4)  (  1,  5,  4)
  0  -181.4      0  -779.4      0  -3754.      0 -0.3201E+05  0 -0.2280E+06
   (  1,  5, 10)  (  1, 11,  2)  (  1,  7,  9)  (  1,  2, 17)  (  1,  3, 11)
  0 -0.1749E+07  0 -0.1079E+08  0 -0.3040E+08  0 -0.2341E+09  0 -0.1617E+10
   (  1,  1, 20)  (  1, 10,  7)  (  1,  5, 13)  (  1,  1, 13)  (  1, 11,  3)
  1 -0.4880E+05  0  0.3185E+05  0 -0.2061E+05  0  -7614.      0  -3259.    
   (  1, 10,  3)  (  1,  6,  1)  (  1, 11,  1)  (  1,  7,  9)  (  1,  5,  2)
  0   1804.      0  -937.0      0   630.6      0  -347.1      0   61.61    
   (  1,  5,  3)  (  1, 11,  2)  (  1,  1, 20)  (  1,  1, 21)  (  1,  5,  3)
  0   30.49      0   16.00      0  -7.307      0  -4.004      0  -2.142    
   (  1, 10,  1)  (  1,  6, 10)  (  1,  5, 11)  (  1,  1,  9)  (  1, 11,  1)
  0  -1.568      0  -1.718      0  -8.162      0  -41.81      0  -230.3    
   (  1, 10, 21)  (  1,  3,  1)  (  1, 11, 17)  (  1,  5, 20)  (  1,  5, 20)
  0  -1046.      0  -3987.      0 -0.1892E+05  0 -0.1217E+06  0 -0.6877E+06
   (  1,  1, 21)  (  1, 11, 18)  (  1,  8, 21)  (  1, 11, 20)  (  1, 10, 20)
  0 -0.4284E+07  0 -0.1375E+08  0 -0.6344E+08  0 -0.4336E+09  0 -0.1651E+10
   (  1, 11, 19)  (  1,  1, 21)  (  1, 11, 17)  (  1,  1, 21)  (  1, 10,  7)
  1  0.5546E+05  0  0.3083E+05  0 -0.1568E+05  0  -6739.      0  -5591.    
   (  1,  5,  4)  (  1,  3, 12)  (  1,  8,  1)  (  1,  2, 20)  (  1,  5,  3)
  0  -2202.      0  -1578.      0   778.5      0  -235.9      0  -119.0    
   (  1,  6,  9)  (  1,  1, 21)  (  1,  3, 21)  (  1,  5,  2)  (  1,  2,  9)
  0  -93.45      0  -29.47      0  -12.22      0  -5.492      0  -2.303    
   (  1,  5,  1)  (  1,  1,  9)  (  1,  3,  4)  (  1, 11,  1)  (  1,  3,  3)
  0  -2.110      0  -1.392      0  -2.551      0  -10.45      0  -44.40    
   (  1,  5,  1)  (  1,  4,  2)  (  1,  7,  9)  (  1,  3, 11)  (  1,  2, 11)
  0  -321.4      0  -1233.      0  -4215.      0 -0.2934E+05  0 -0.2535E+06
   (  1, 11,  1)  (  1,  7,  9)  (  1, 10,  3)  (  1,  5, 12)  (  1, 10,  9)
  0 -0.8017E+06  0 -0.2981E+07  0 -0.3083E+08  0 -0.1674E+09  0 -0.6180E+09
   (  1,  3, 13)  (  1,  1, 21)  (  1, 11,  6)  (  1,  7,  9)  (  1,  9,  6)
  1  0.6882E+05  0  0.5386E+05  0 -0.1671E+05  0  -8555.      0   2972.    
   (  1, 11,  1)  (  1,  2, 21)  (  1,  1, 21)  (  1,  2, 10)  (  1,  2, 11)
  0   1815.      0   781.9      0  -448.5      0   206.4      0  -133.2    
   (  1,  1, 21)  (  1,  5,  2)  (  1, 10,  1)  (  1,  1, 21)  (  1,  1, 20)
  0  -38.24      0  -20.43      0  -9.788      0  -4.728      0  -2.243    
   (  1,  2,  9)  (  1,  5,  3)  (  1,  6, 19)  (  1,  6,  5)  (  1,  5,  4)
  0  -2.234      0  -1.623      0  -3.975      0  -14.00      0  -82.73    
   (  1, 11,  1)  (  1,  5,  9)  (  1,  4,  1)  (  1,  5,  9)  (  1,  4,  2)
  0  -449.4      0  -3153.      0  -9647.      0 -0.3177E+05  0 -0.3559E+06
   (  1,  3,  4)  (  1,  3, 10)  (  1,  2, 21)  (  1,  4,  9)  (  1,  5,  5)
  0 -0.3338E+07  0 -0.2240E+08  0 -0.6912E+08  0 -0.3338E+09  0 -0.1722E+10
   (  1,  7, 13)  (  1, 11,  8)  (  1,  5,  9)  (  1,  6,  1)  (  1,  5,  5)
  1  0.4869E+05  0 -0.3746E+05  0  0.2013E+05  0   7558.      0  -4302.    
   (  1,  8,  9)  (  1,  7, 10)  (  1,  9,  9)  (  1,  6,  9)  (  1,  2, 20)
  0   2524.      0  -1405.      0   410.8      0   186.7      0  -61.87    
   (  1,  2, 21)  (  1,  1, 21)  (  1,  2, 20)  (  1,  4, 11)  (  1,  5, 16)
  0   42.40      0  -15.07      0  -10.19      0  -3.401      0  -2.763    
   (  1,  3, 10)  (  1, 11, 11)  (  1,  1,  9)  (  1, 11,  5)  (  1,  5, 21)
  0  -1.429      0  -1.981      0  -4.638      0  -15.40      0  -89.40    
   (  1, 11, 17)  (  1,  7, 20)  (  1, 10, 18)  (  1, 10, 21)  (  1, 11, 18)
  0  -521.2      0  -1851.      0  -6090.      0 -0.3316E+05  0 -0.3519E+06
   (  1, 11, 17)  (  1,  4, 21)  (  1, 10, 20)  (  1, 10, 11)  (  1,  2, 17)
  0 -0.2013E+07  0 -0.1867E+08  0 -0.7238E+08  0 -0.2199E+09  0 -0.1473E+10
   (  1,  1, 21)  (  1,  5, 16)  (  1,  1, 21)  (  1,  2, 11)  (  1, 10,  9)
  1 -0.5321E+05  0  0.5240E+05  0 -0.1841E+05  0  -6144.      0   3182.    
   (  1,  1, 21)  (  1,  1, 21)  (  1,  1, 19)  (  1, 11,  1)  (  1,  3, 11)
  0  -1455.      0  -571.9      0   209.9      0   175.6      0  -99.76    
   (  1,  5, 11)  (  1, 10,  9)  (  1,  5,  5)  (  1,  9,  1)  (  1, 11,  1)
  0  -30.56      0  -20.39      0   5.517      0  -4.283      0  -1.961    
   (  1,  5,  8)  (  1,  3,  2)  (  1, 10,  5)  (  1,  6,  2)  (  1,  1, 17)
  0  -1.611      0  -1.725      0  -6.686      0  -27.09      0  -190.0    
   (  1, 10,  1)  (  1,  1,  5)  (  1, 10,  1)  (  1,  1,  5)  (  1,  4,  1)
  0  -909.1      0  -9006.      0 -0.4240E+05  0 -0.2250E+06  0 -0.4623E+06
   (  1,  2,  3)  (  1,  2,  2)  (  1,  5,  1)  (  1,  5,  8)  (  1,  5,  1)
  0 -0.3751E+07  0 -0.1722E+08  0 -0.4746E+08  0 -0.3570E+09  0 -0.1728E+10
   (  1,  2,  4)  (  1,  1, 19)  (  1,  2,  8)  (  1,  7,  4)  (  1,  4,  9)
  1  0.3611E+05  0  0.3475E+05  0 -0.1588E+05  0   5409.      0  -2217.    
   (  1,  4, 11)  (  1,  1, 20)  (  1,  4, 21)  (  1,  1, 20)  (  1,  1, 21)
  0   987.2      0  -671.7      0   283.4      0   93.42      0  -43.60    
   (  1,  7,  2)  (  1, 11,  1)  (  1,  3, 18)  (  1,  5,  8)  (  1,  2, 20)
  0   24.17      0  -15.69      0  -6.150      0  -3.359      0  -1.535    
   (  1,  5,  9)  (  1, 10, 21)  (  1,  6,  9)  (  1,  3, 19)  (  1, 11, 10)
  0  -1.835      0  -2.150      0  -6.522      0  -33.87      0  -153.1    
   (  1,  9, 21)  (  1, 10, 20)  (  1, 11, 20)  (  1, 11, 14)  (  1,  6, 20)
  0  -659.6      0  -3635.      0  -7666.      0 -0.5039E+05  0 -0.4348E+06
   (  1,  5, 15)  (  1,  2, 19)  (  1,  5, 13)  (  1, 11,  1)  (  1, 10,  8)
  0 -0.2643E+07  0 -0.9748E+07  0 -0.4114E+08  0 -0.4052E+09  0 -0.2271E+10
   (  1,  6, 13)  (  1,  1, 21)  (  1,  5, 14)  (  1, 11,  7)  (  1, 10, 11)
  1 -0.3950E+05  0 -0.4385E+05  0 -0.1097E+05  0  -5505.      0   3287.    
   (  1,  5,  1)  (  1,  1, 21)  (  1,  4,  2)  (  1,  5,  7)  (  1, 10,  9)
  0   2502.      0  -1068.      0  -356.7      0  -162.0      0   64.27    
   (  1, 11,  1)  (  1,  1, 21)  (  1, 11,  1)  (  1,  3,  3)  (  1,  5,  5)
  0  -38.35      0  -19.23      0  -8.137      0  -3.570      0  -1.842    
   (  1, 10,  8)  (  1,  2, 21)  (  1,  4,  2)  (  1,  4, 21)  (  1,  2,  3)
  0  -1.334      0  -2.083      0  -7.829      0  -42.29      0  -232.5    
   (  1,  3,  1)  (  1,  5, 12)  (  1, 10, 18)  (  1,  2,  1)  (  1,  5,  1)
  0  -1589.      0  -8714.      0 -0.2161E+05  0 -0.1184E+06  0 -0.8093E+06
   (  1,  1,  2)  (  1, 11,  1)  (  1,  1,  3)  (  1,  4,  1)  (  1,  1,  6)
  0 -0.1986E+07  0 -0.1266E+08  0 -0.1049E+09  0 -0.7277E+09  0 -0.3834E+10
   (  1,  1, 20)  (  1,  5,  2)  (  1,  5,  3)  (  1,  3,  9)  (  1,  7,  2)
  1  0.4748E+05  0 -0.2855E+05  0 -0.1516E+05  0   9690.      0  -4356.    
   (  1,  7, 10)  (  1,  6,  9)  (  1,  2, 19)  (  1,  7,  1)  (  1, 11,  1)
  0   2935.      0   1059.      0   471.8      0  -219.0      0  -219.3    
   (  1, 11,  1)  (  1,  2,  3)  (  1,  1,  9)  (  1,  8, 17)  (  1,  3, 21)
  0   70.71      0   39.15      0  -13.12      0   5.575      0  -2.618    
   (  1,  1, 21)  (  1,  1,  2)  (  1,  1, 21)  (  1,  2,  8)  (  1,  3, 21)
  0  -1.597      0  -1.597      0  -2.315      0  -11.08      0  -47.01    
   (  1, 10, 15)  (  1,  2, 21)  (  1,  6,  7)  (  1,  3, 19)  (  1, 11,  1)
  0  -368.0      0  -2327.      0  -9234.      0 -0.3204E+05  0 -0.2432E+06
   (  1,  5,  3)  (  1,  7, 16)  (  1, 11,  4)  (  1,  9,  9)  (  1, 11,  8)
  0 -0.1983E+07  0 -0.1153E+08  0 -0.4076E+08  0 -0.2726E+09  0 -0.1354E+10
   (  1,  9,  9)  (  1,  1, 20)  (  1,  5, 17)  (  1,  6, 21)  (  1,  5,  5)
  1  0.5309E+05  0 -0.5687E+05  0  0.2226E+05  0  -9944.      0   3591.    
   (  1,  1, 20)  (  1,  2, 20)  (  1,  1, 20)  (  1,  6,  9)  (  1, 11,  1)
  0  -2298.      0   1274.      0   482.7      0   216.5      0   100.3    
   (  1,  1, 21)  (  1,  1, 21)  (  1, 11,  1)  (  1,  5,  9)  (  1, 10,  3)
  0  -46.65      0  -25.18      0  -12.23      0   4.818      0  -2.215    
   (  1,  1, 21)  (  1,  5, 20)  (  1, 11,  1)  (  1,  5,  1)  (  1, 10,  9)
  0  -1.853      0  -1.444      0  -4.811      0  -14.59      0  -94.77    
   (  1,  6, 20)  (  1,  1, 21)  (  1,  9, 21)  (  1,  7, 17)  (  1,  6, 20)
  0  -497.6      0  -3463.      0  -8652.      0 -0.3265E+05  0 -0.3038E+06
   (  1,  1, 21)  (  1,  5, 20)  (  1,  3, 21)  (  1,  5, 18)  (  1,  6, 19)
  0 -0.1717E+07  0 -0.1410E+08  0 -0.6016E+08  0 -0.1603E+09  0 -0.9886E+09
   (  1,  5, 17)  (  1,  7, 10)  (  1, 11,  7)  (  1,  5, 10)  (  1,  1, 21)
  1 -0.3861E+05  0  0.3040E+05  0  0.2000E+05  0  -7573.      0   5380.    
   (  1,  9,  9)  (  1,  1, 20)  (  1,  5,  2)  (  1, 10,  1)  (  1,  1, 20)
  0  -2308.      0  -886.4      0   544.6      0   153.8      0   72.50    
   (  1,  2, 21)  (  1, 11,  1)  (  1,  7,  9)  (  1, 11, 13)  (  1,  3,  9)
  0  -36.75      0  -13.42      0  -9.229      0  -4.137      0  -2.949    
   (  1,  3,  9)  (  1,  5,  3)  (  1,  5,  1)  (  1,  7, 20)  (  1,  3,  1)
  0  -1.401      0  -2.357      0  -5.138      0  -24.96      0  -108.3    
   (  1,  1,  8)  (  1,  5,  2)  (  1, 11,  1)  (  1,  4,  3)  (  1, 10,  2)
  0  -455.0      0  -2913.      0  -5666.      0 -0.3340E+05  0 -0.2788E+06
   (  1,  5,  9)  (  1, 11,  1)  (  1,  5,  7)  (  1,  1, 11)  (  1,  2, 11)
  0 -0.7934E+06  0 -0.3939E+07  0 -0.3109E+08  0 -0.2884E+09  0 -0.1102E+10
   (  1,  1, 21)  (  1,  3, 11)  (  1,  6, 10)  (  1,  8,  9)  (  1,  7,  6)
  1 -0.6501E+05  0  0.6239E+05  0  0.2297E+05  0 -0.1118E+05  0   4688.    
   (  1,  9,  1)  (  1, 11,  3)  (  1,  5, 11)  (  1,  6,  9)  (  1,  3,  9)
  0  -2574.      0   1164.      0  -442.3      0  -400.9      0   147.6    
   (  1,  3, 21)  (  1,  2, 10)  (  1,  4, 11)  (  1,  1, 21)  (  1,  1, 20)
  0   57.48      0  -37.27      0   12.44      0  -8.055      0  -3.016    
   (  1,  2, 11)  (  1,  9, 21)  (  1,  1, 15)  (  1,  6, 19)  (  1, 11, 13)
  0  -1.912      0  -1.459      0  -2.958      0  -8.800      0  -60.82    
   (  1,  9, 20)  (  1,  9, 21)  (  1, 10, 17)  (  1,  5, 20)  (  1, 10, 20)
  0  -256.2      0  -1369.      0  -3352.      0 -0.2343E+05  0 -0.1712E+06
   (  1,  4, 19)  (  1, 11, 17)  (  1, 11,  2)  (  1, 10, 12)  (  1,  5, 13)
  0 -0.1132E+07  0 -0.4860E+07  0 -0.1495E+08  0 -0.1547E+09  0 -0.6223E+09
   (  1, 10, 11)  (  1,  3, 14)  (  1,  2, 20)  (  1,  7, 17)  (  1,  1, 20)
  1  0.3756E+05  0 -0.3654E+05  0  0.1756E+05  0  -7337.      0   4473.    
   (  1, 10,  1)  (  1, 11,  1)  (  1,  1, 21)  (  1, 10,  4)  (  1,  6,  3)
  0   1939.      0  -465.5      0  -236.3      0   154.1      0   81.91    
   (  1,  4,  9)  (  1,  5, 10)  (  1, 11,  3)  (  1, 11,  1)  (  1,  2, 20)
  0  -39.36      0   14.90      0   5.630      0  -3.478      0  -1.577    
   (  1,  1, 21)  (  1,  3, 19)  (  1, 11,  2)  (  1,  5,  1)  (  1,  5,  4)
  0  -1.399      0  -2.008      0  -6.259      0  -22.52      0  -131.4    
   (  1,  1,  6)  (  1, 11,  1)  (  1,  1, 10)  (  1,  6,  1)  (  1,  2,  5)
  0  -719.5      0  -2031.      0 -0.1082E+05  0 -0.5655E+05  0 -0.4418E+06
   (  1,  5,  2)  (  1,  2,  6)  (  1,  5,  1)  (  1,  5,  6)  (  1,  5,  5)
  0 -0.2271E+07  0 -0.1819E+08  0 -0.4106E+08  0 -0.3288E+09  0 -0.1060E+10
   (  1,  1,  4)  (  1,  3, 14)  (  1,  6,  6)  (  1,  9,  3)  (  1,  1, 20)
  1  0.3681E+05  0 -0.2736E+05  0 -0.1599E+05  0   5674.      0  -3392.    
   (  1,  4,  9)  (  1,  4, 11)  (  1,  7,  2)  (  1,  4, 21)  (  1, 11,  1)
  0   1431.      0   911.7      0  -464.4      0  -151.3      0   61.41    
   (  1,  6,  2)  (  1,  2, 21)  (  1,  1, 21)  (  1,  7, 20)  (  1,  3, 19)
  0   32.59      0   19.55      0  -5.677      0  -2.119      0  -1.280    
   (  1, 11,  2)  (  1,  1, 21)  (  1,  3, 17)  (  1,  6, 15)  (  1,  5,  1)
  0  -1.503      0  -2.644      0  -14.65      0  -63.09      0  -350.6    
   (  1,  1, 21)  (  1,  2, 18)  (  1,  6, 21)  (  1,  5, 11)  (  1, 11, 17)
  0  -1188.      0  -3426.      0 -0.1432E+05  0 -0.1055E+06  0 -0.5162E+06
   (  1,  3, 21)  (  1, 11, 20)  (  1, 11,  1)  (  1,  9, 21)  (  1,  9, 18)
  0 -0.2027E+07  0 -0.6747E+07  0 -0.5608E+08  0 -0.3961E+09  0 -0.2950E+10
   (  1,  2, 20)  (  1,  8, 17)  (  1,  1, 21)  (  1, 10, 16)  (  1,  6, 18)
  1  0.5949E+05  0 -0.3129E+05  0  0.1849E+05  0   6475.      0  -5318.    
   (  1,  1, 21)  (  1,  1, 21)  (  1,  3,  9)  (  1,  3, 21)  (  1,  1, 20)
  0   2546.      0  -1370.      0   426.2      0   220.9      0  -118.8    
   (  1,  1, 21)  (  1, 11,  1)  (  1, 11,  2)  (  1,  2, 20)  (  1,  1, 21)
  0   51.01      0  -26.04      0   15.93      0  -6.718      0  -4.055    
   (  1,  2, 20)  (  1,  2,  9)  (  1,  6, 20)  (  1,  1, 17)  (  1,  4,  2)
  0  -1.918      0  -1.736      0  -2.487      0  -9.326      0  -35.48    
   (  1,  1,  6)  (  1,  2,  1)  (  1,  5,  9)  (  1,  7,  1)  (  1,  7,  3)
  0  -253.2      0  -1643.      0  -7787.      0 -0.2295E+05  0 -0.1828E+06
   (  1, 11,  1)  (  1,  5,  2)  (  1,  5, 15)  (  1,  5,  1)  (  1,  1,  5)
  0 -0.1568E+07  0 -0.8111E+07  0 -0.2232E+08  0 -0.1677E+09  0 -0.1384E+10
   (  1,  2,  9)  (  1,  4, 21)  (  1,  5,  1)  (  1,  4, 21)  (  1,  1,  9)
  1  0.5194E+05  0 -0.3575E+05  0 -0.1948E+05  0  -7562.      0  -3900.    
   (  1,  6, 17)  (  1, 11,  1)  (  1,  9,  9)  (  1,  5, 19)  (  1,  3,  8)
  0  -3184.      0   1007.      0  -580.8      0   197.5      0   107.7    
   (  1,  1, 21)  (  1,  1, 19)  (  1,  1, 21)  (  1,  5, 21)  (  1,  5,  5)
  0   45.04      0  -16.14      0  -6.221      0  -3.410      0  -2.474    
   (  1, 10,  1)  (  1,  5, 20)  (  1,  9,  4)  (  1,  1, 21)  (  1,  7, 11)
  0  -1.466      0  -1.681      0  -4.518      0  -27.91      0  -191.6    
   (  1,  2, 20)  (  1, 10,  2)  (  1,  4, 19)  (  1, 11,  7)  (  1,  9, 10)
  0  -1076.      0  -3984.      0 -0.1493E+05  0 -0.1110E+06  0 -0.3513E+06
   (  1,  5, 15)  (  1, 11,  2)  (  1,  9,  9)  (  1,  1, 21)  (  1,  5, 15)
  0 -0.9002E+06  0 -0.9925E+07  0 -0.5463E+08  0 -0.2976E+09  0 -0.1811E+10
   (  1,  1, 21)  (  1,  9, 21)  (  1, 11, 17)  (  1, 11, 19)  (  1, 10, 21)
  1  0.4571E+05  0 -0.3319E+05  0 -0.1935E+05  0   9074.      0  -4447.    
   (  1,  3,  8)  (  1,  3,  9)  (  1,  4,  2)  (  1,  5,  1)  (  1, 10,  1)
  0   2108.      0   1192.      0  -594.0      0  -292.3      0   81.45    
   (  1, 11,  1)  (  1,  1, 21)  (  1,  3, 21)  (  1,  3,  2)  (  1,  5, 11)
  0   45.66      0  -37.25      0  -8.462      0  -5.359      0  -3.089    
   (  1, 10, 21)  (  1, 11,  1)  (  1,  1,  7)  (  1, 11,  1)  (  1,  2,  9)
  0  -2.069      0  -1.575      0  -3.133      0  -14.38      0  -59.95    
   (  1,  5,  2)  (  1,  1,  9)  (  1,  4,  2)  (  1,  6,  2)  (  1, 10,  1)
  0  -273.2      0  -817.7      0  -5046.      0 -0.5118E+05  0 -0.3304E+06
   (  1,  2,  6)  (  1, 11,  1)  (  1,  1,  4)  (  1,  5,  1)  (  1,  1,  5)
  0 -0.1659E+07  0 -0.5315E+07  0 -0.3811E+08  0 -0.1403E+09  0 -0.8372E+09
   (  1,  4,  4)  (  1, 11,  1)  (  1,  3, 21)  (  1,  5,  5)  (  1,  8, 21)
  1 -0.5351E+05  0  0.4622E+05  0 -0.2708E+05  0  -7655.      0   4300.    
   (  1,  5,  9)  (  1,  1, 20)  (  1,  1, 21)  (  1, 11,  3)  (  1, 11,  2)
  0  -2232.      0   1321.      0  -330.9      0  -244.4      0  -81.13    
   (  1,  2, 20)  (  1,  1, 21)  (  1, 11,  8)  (  1,  1, 21)  (  1, 11,  3)
  0   34.16      0  -18.98      0   7.825      0  -4.725      0  -2.024    
   (  1, 11,  1)  (  1, 11,  1)  (  1,  5, 18)  (  1,  5, 20)  (  1, 11,  1)
  0  -1.527      0  -1.607      0  -7.850      0  -42.68      0  -199.2    
   (  1,  3, 19)  (  1,  5, 17)  (  1,  6,  9)  (  1,  4, 18)  (  1,  5, 16)
  0  -1013.      0  -5823.      0 -0.1156E+05  0 -0.5413E+05  0 -0.4753E+06
   (  1,  5, 19)  (  1,  2, 21)  (  1,  7,  9)  (  1,  6, 20)  (  1, 11, 18)
  0 -0.2309E+07  0 -0.9098E+07  0 -0.4272E+08  0 -0.3402E+09  0 -0.1352E+10
   (  1,  8, 21)  (  1,  5, 16)  (  1,  2, 20)  (  1, 11,  1)  (  1,  9,  7)
  1 -0.6100E+05  0  0.4557E+05  0 -0.2008E+05  0  0.1822E+05  0  -4808.    
   (  1,  5,  9)  (  1,  6, 11)  (  1,  2, 21)  (  1,  1, 21)  (  1,  2, 20)
  0   1374.      0  -991.8      0   705.3      0  -279.6      0   139.0    
   (  1,  6,  5)  (  1,  4,  2)  (  1, 11,  2)  (  1, 11,  1)  (  1,  2, 21)
  0  -44.40      0  -28.18      0  -8.638      0  -4.069      0  -2.228    
   (  1,  5, 21)  (  1, 11,  2)  (  1,  5,  3)  (  1,  1,  5)  (  1,  5,  2)
  0  -1.447      0  -1.527      0  -4.290      0  -15.67      0  -75.13    
   (  1,  2,  1)  (  1,  5,  1)  (  1,  4,  4)  (  1,  6,  2)  (  1,  1,  2)
  0  -381.0      0  -2231.      0  -3980.      0 -0.3389E+05  0 -0.2263E+06
   (  1,  3,  9)  (  1,  4,  1)  (  1,  6,  9)  (  1, 10,  1)  (  1,  2,  5)
  0 -0.1850E+07  0 -0.4393E+07  0 -0.3197E+08  0 -0.2052E+09  0 -0.6856E+09
   (  1,  2,  3)  (  1,  1, 21)  (  1,  5,  1)  (  1,  3,  2)  (  1,  3, 21)
  1 -0.5387E+05  0  0.5840E+05  0 -0.2021E+05  0   8095.      0  -5201.    
   (  1,  6,  5)  (  1,  1, 21)  (  1,  1, 20)  (  1,  9,  1)  (  1, 11,  2)
  0   1667.      0   880.1      0   360.1      0   174.3      0  -103.4    
   (  1, 10,  1)  (  1,  7,  9)  (  1,  7,  5)  (  1,  3,  9)  (  1,  1, 21)
  0  -34.16      0  -14.21      0  -7.116      0  -4.131      0  -2.949    
   (  1,  4, 19)  (  1, 11, 10)  (  1,  2, 18)  (  1,  5,  2)  (  1,  1, 21)
  0  -1.107      0  -1.956      0  -6.098      0  -34.72      0  -166.0    
   (  1,  4,  9)  (  1,  2, 20)  (  1,  5, 11)  (  1, 10, 11)  (  1,  2, 18)
  0  -619.0      0  -2111.      0  -7796.      0 -0.5072E+05  0 -0.2021E+06
   (  1,  9, 10)  (  1, 11,  1)  (  1,  7, 12)  (  1,  5, 20)  (  1,  2, 21)
  0 -0.5638E+06  0 -0.4112E+07  0 -0.2916E+08  0 -0.2616E+09  0 -0.1374E+10
   (  1, 11, 20)  (  1,  9, 20)  (  1, 10, 21)  (  1,  8, 21)  (  1, 10, 19)
  1  0.4130E+05  0 -0.3898E+05  0 -0.1741E+05  0   9859.      0  -6140.    
   (  1,  1, 20)  (  1,  1, 21)  (  1, 11,  1)  (  1,  1, 21)  (  1,  2, 20)
  0  -1273.      0   852.3      0  -321.5      0   129.4      0   94.63    
   (  1,  4, 16)  (  1,  2, 10)  (  1,  5, 11)  (  1,  4,  8)  (  1,  4, 19)
  0  -30.26      0   12.61      0  -4.598      0   3.385      0  -2.770    
   (  1,  5, 20)  (  1,  5, 18)  (  1,  5,  9)  (  1, 11,  1)  (  1, 11,  1)
  0  -1.607      0  -2.552      0  -7.821      0  -36.30      0  -152.9    
   (  1,  1,  2)  (  1,  5,  5)  (  1,  4,  3)  (  1,  6,  1)  (  1,  5,  9)
  0  -859.6      0  -2005.      0  -8816.      0 -0.8485E+05  0 -0.3759E+06
   (  1,  1,  4)  (  1, 10,  2)  (  1,  2,  6)  (  1,  5,  2)  (  1,  1, 21)
  0 -0.1119E+07  0 -0.6610E+07  0 -0.4023E+08  0 -0.4834E+09  0 -0.1568E+10
   (  1, 11,  1)  (  1,  5,  7)  (  1, 10,  3)  (  1, 10, 20)  (  1,  3, 21)
  1  0.4776E+05  0 -0.5035E+05  0  0.1493E+05  0   6848.      0   3220.    
   (  1,  3, 21)  (  1,  1, 21)  (  1,  5,  9)  (  1, 11,  2)  (  1,  9,  9)
  0   1507.      0  -631.9      0  -387.1      0  -264.4      0   97.84    
   (  1,  6, 10)  (  1,  3,  2)  (  1,  5, 13)  (  1,  2, 21)  (  1,  1, 21)
  0   46.45      0  -22.07      0  -6.544      0  -3.122      0  -2.184    
   (  1, 10,  1)  (  1, 11,  1)  (  1,  5, 20)  (  1,  5, 15)  (  1, 11,  1)
  0  -1.289      0  -1.887      0  -7.284      0  -40.84      0  -232.1    
   (  1,  3, 11)  (  1,  7, 13)  (  1,  5, 20)  (  1,  5, 17)  (  1,  6, 21)
  0  -1416.      0  -7811.      0 -0.1439E+05  0 -0.1043E+06  0 -0.5257E+06
   (  1,  5, 18)  (  1, 10, 18)  (  1, 11,  2)  (  1, 11, 15)  (  1, 11, 19)
  0 -0.1999E+07  0 -0.5503E+07  0 -0.5190E+08  0 -0.2769E+09  0 -0.8324E+09
   (  1,  5, 20)  (  1,  9, 20)  (  1,  2, 21)  (  1, 11, 18)  (  1,  4, 21)
  1  0.5826E+05  0 -0.3721E+05  0  0.1757E+05  0   6045.      0  -3905.    
   (  1,  1, 21)  (  1,  2, 21)  (  1,  5,  9)  (  1, 10,  2)  (  1, 11,  1)
  0   1479.      0  -744.1      0   331.3      0  -174.0      0   65.23    
   (  1,  9,  1)  (  1,  1, 20)  (  1,  1, 21)  (  1,  2, 21)  (  1,  1, 21)
  0   32.65      0   17.18      0  -7.208      0   6.023      0  -1.703    
   (  1, 11,  2)  (  1,  5,  3)  (  1, 11,  9)  (  1, 11,  1)  (  1, 11,  2)
  0  -1.755      0  -2.104      0  -6.097      0  -19.72      0  -112.6    
   (  1,  5, 20)  (  1,  5, 16)  (  1,  4, 19)  (  1, 10, 17)  (  1,  8, 20)
  0  -632.0      0  -4526.      0  -8713.      0 -0.5639E+05  0 -0.4342E+06
   (  1,  7, 19)  (  1,  1, 21)  (  1, 11, 16)  (  1,  5, 20)  (  1, 10, 16)
  0 -0.1085E+07  0 -0.9381E+07  0 -0.6335E+08  0 -0.7107E+09  0 -0.1810E+10
   (  1,  2, 21)  (  1,  8, 17)  (  1,  7, 10)  (  1,  3,  4)  (  1,  1, 20)
  1 -0.6288E+05  0  0.4028E+05  0  0.2233E+05  0  0.1262E+05  0  -6725.    
   (  1,  5,  5)  (  1,  5,  4)  (  1,  5,  9)  (  1, 11,  3)  (  1,  1, 20)
  0  -1666.      0  -1084.      0   986.5      0   303.1      0  -98.51    
   (  1,  9,  8)  (  1,  5,  3)  (  1, 11,  1)  (  1,  1, 21)  (  1,  3, 10)
  0  -34.98      0  -32.30      0  -10.45      0  -6.561      0  -2.848    
   (  1,  5,  9)  (  1, 10,  1)  (  1,  1,  9)  (  1,  5,  1)  (  1,  2,  9)
  0  -2.008      0  -1.653      0  -2.881      0  -8.817      0  -47.10    
   (  1,  5,  3)  (  1, 11,  1)  (  1,  1,  3)  (  1,  5,  1)  (  1,  5, 11)
  0  -266.6      0  -1626.      0  -2907.      0 -0.2376E+05  0 -0.1661E+06
   (  1,  6,  2)  (  1,  2,  6)  (  1, 10,  3)  (  1,  7,  7)  (  1,  1, 21)
  0 -0.4760E+06  0 -0.2533E+07  0 -0.2527E+08  0 -0.1342E+09  0 -0.4510E+09
   (  1,  3,  9)  (  1,  2, 19)  (  1, 10,  2)  (  1,  1, 21)  (  1,  6,  6)
  1 -0.5034E+05  0 -0.3606E+05  0  0.2467E+05  0  -9231.      0   3778.    
   (  1,  1, 21)  (  1,  9,  1)  (  1, 10,  1)  (  1,  5,  1)  (  1,  1, 21)
  0  -2688.      0   743.3      0   409.1      0   278.4      0  -110.6    
   (  1, 11,  1)  (  1,  5,  9)  (  1,  5,  3)  (  1,  2, 21)  (  1,  1, 21)
  0  -31.58      0  -16.80      0  -7.096      0  -4.464      0  -1.941    
   (  1,  4, 16)  (  1,  6,  5)  (  1,  2, 17)  (  1, 11,  8)  (  1,  1, 21)
  0  -1.490      0  -1.761      0  -5.647      0  -30.80      0  -171.5    
   (  1, 11,  2)  (  1,  5, 18)  (  1, 10,  2)  (  1,  7, 10)  (  1, 11,  1)
  0  -890.8      0  -2201.      0 -0.1772E+05  0 -0.1151E+06  0 -0.8734E+06
   (  1, 11,  6)  (  1,  7, 10)  (  1,  3, 18)  (  1,  8,  9)  (  1,  1, 20)
  0 -0.5472E+07  0 -0.2695E+08  0 -0.9744E+08  0 -0.6216E+09  0 -0.3402E+10
   (  1,  2, 19)  (  1, 10,  9)  (  1,  1, 21)  (  1,  7, 19)  (  1, 11, 19)
  1 -0.6186E+05  0  0.4942E+05  0 -0.1908E+05  0  -7885.      0  -4411.    
   (  1, 10,  1)  (  1, 11,  3)  (  1,  3,  1)  (  1,  5,  8)  (  1,  4,  4)
  0   1992.      0  -966.9      0   661.1      0  -304.6      0   157.6    
   (  1,  2, 20)  (  1, 11,  1)  (  1,  1, 21)  (  1,  2, 20)  (  1,  1, 21)
  0   82.96      0  -28.09      0  -18.93      0  -7.069      0  -4.625    
   (  1,  6, 19)  (  1,  1,  9)  (  1, 10,  1)  (  1,  2,  9)  (  1,  5,  1)
  0  -2.055      0  -1.473      0  -2.822      0  -7.603      0  -37.34    
   (  1,  1,  9)  (  1,  5,  3)  (  1, 11,  1)  (  1,  5,  9)  (  1,  9,  2)
  0  -176.3      0  -496.6      0  -3876.      0 -0.2466E+05  0 -0.1806E+06
   (  1,  5,  7)  (  1, 10,  1)  (  1,  3, 12)  (  1,  2, 10)  (  1,  1,  9)
  0 -0.1542E+07  0 -0.8163E+07  0 -0.2404E+08  0 -0.1501E+09  0 -0.9964E+09
   (  1,  7,  5)  (  1,  4, 11)  (  1,  1, 21)  (  1,  9,  9)  (  1,  1, 21)
  1 -0.3661E+05  0  0.2568E+05  0  0.2044E+05  0   8646.      0  -2944.    
   (  1,  4,  4)  (  1,  5,  7)  (  1, 11,  2)  (  1,  5, 10)  (  1,  3,  8)
  0  -1945.      0   1104.      0  -473.5      0   200.0      0  -89.07    
   (  1,  2, 21)  (  1,  1, 21)  (  1,  2, 21)  (  1,  1, 21)  (  1, 11,  1)
  0  -33.15      0  -19.02      0  -8.973      0  -4.178      0  -2.803    
   (  1,  2,  2)  (  1,  7, 10)  (  1,  5,  1)  (  1,  1,  5)  (  1, 10,  2)
  0  -1.725      0  -2.002      0  -3.682      0  -15.12      0  -59.89    
   (  1,  1,  9)  (  1,  5,  3)  (  1,  2,  4)  (  1,  5,  2)  (  1, 10,  1)
  0  -290.3      0  -3119.      0  -5576.      0 -0.3329E+05  0 -0.2735E+06
   (  1,  5, 11)  (  1,  9,  3)  (  1,  6,  8)  (  1, 11,  1)  (  1,  5,  7)
  0 -0.6579E+06  0 -0.3993E+07  0 -0.3879E+08  0 -0.3313E+09  0 -0.2083E+10
   (  1, 10,  4)  (  1,  9,  9)  (  1, 11,  1)  (  1,  7,  5)  (  1,  3, 10)
  1 -0.4394E+05  0  0.3279E+05  0 -0.1790E+05  0 -0.1064E+05  0   5709.    
   (  1,  5, 10)  (  1,  6, 11)  (  1,  1, 21)  (  1,  7,  1)  (  1, 10,  4)
  0   1491.      0   1650.      0  -474.1      0   182.8      0  -105.6    
   (  1,  4,  9)  (  1,  1, 21)  (  1,  2, 19)  (  1,  1, 18)  (  1,  1, 21)
  0  -33.08      0  -19.57      0   6.823      0  -3.063      0  -1.508    
   (  1,  5,  5)  (  1, 11,  1)  (  1, 11,  1)  (  1,  2,  2)  (  1, 10,  1)
  0  -1.464      0  -1.753      0  -5.193      0  -21.27      0  -107.2    
   (  1,  5,  3)  (  1,  1,  4)  (  1,  6,  9)  (  1,  3,  1)  (  1,  1,  5)
  0  -682.5      0  -3845.      0  -8604.      0 -0.5002E+05  0 -0.3866E+06
   (  1,  1,  5)  (  1,  5,  1)  (  1,  1,  4)  (  1,  5,  2)  (  1,  3,  4)
  0 -0.1032E+07  0 -0.6142E+07  0 -0.4192E+08  0 -0.3520E+09  0 -0.1800E+10
   (  1,  2,  8)  (  1,  5,  6)  (  1,  6,  5)  (  1, 11,  1)  (  1,  5, 11)
  1 -0.4466E+05  0 -0.2862E+05  0 -0.2351E+05  0   9472.      0   4057.    
   (  1,  3, 19)  (  1, 11,  1)  (  1,  1, 21)  (  1,  1, 21)  (  1,  9,  3)
  0  -2227.      0   1297.      0  -723.8      0   242.4      0   100.2    
   (  1,  2, 21)  (  1,  1, 21)  (  1,  1, 21)  (  1, 10,  2)  (  1,  2,  8)
  0   54.40      0  -24.56      0  -11.26      0  -7.976      0   3.322    
   (  1,  7,  1)  (  1,  8, 21)  (  1, 11, 15)  (  1,  8, 21)  (  1,  1,  9)
  0  -2.149      0  -1.476      0  -2.030      0  -7.904      0  -32.78    
   (  1,  9, 20)  (  1, 11, 17)  (  1,  7, 10)  (  1,  1, 21)  (  1,  8, 10)
  0  -294.3      0  -835.6      0  -3105.      0 -0.2559E+05  0 -0.1702E+06
   (  1, 11,  1)  (  1,  5,  8)  (  1, 11,  4)  (  1,  6, 10)  (  1,  1, 21)
  0 -0.1709E+07  0 -0.4844E+07  0 -0.2182E+08  0 -0.1758E+09  0 -0.4997E+09
   (  1,  5, 16)  (  1,  2, 21)  (  1,  5, 18)  (  1,  6,  5)  (  1,  6, 13)
  1 -0.2816E+05  0  0.2647E+05  0  0.2034E+05  0 -0.1059E+05  0   2517.    
   (  1,  4,  7)  (  1,  5,  8)  (  1, 10,  2)  (  1, 11,  1)  (  1,  1, 10)
  0  -2342.      0   1187.      0  -258.6      0  -146.0      0   70.21    
   (  1,  2, 21)  (  1,  1, 21)  (  1, 10,  7)  (  1,  5, 18)  (  1,  1, 11)
  0  -38.60      0  -9.266      0  -4.138      0  -3.520      0  -1.752    
   (  1,  5, 20)  (  1,  1, 21)  (  1, 11,  9)  (  1,  1, 21)  (  1, 10, 11)
  0  -1.741      0  -2.798      0  -6.012      0  -34.71      0  -143.8    
   (  1,  9, 21)  (  1, 11, 15)  (  1,  6, 20)  (  1, 11, 20)  (  1,  9, 20)
  0  -493.2      0  -1878.      0 -0.1087E+05  0 -0.1065E+06  0 -0.8745E+06
   (  1,  6, 16)  (  1, 11,  3)  (  1,  5, 14)  (  1,  1, 19)  (  1,  6, 16)
  0 -0.4898E+07  0 -0.2528E+08  0 -0.7029E+08  0 -0.5125E+09  0 -0.3527E+10
   (  1,  9, 10)  (  1,  1, 21)  (  1,  4, 16)  (  1,  1, 19)  (  1,  5, 18)
  1  0.4654E+05  0 -0.2681E+05  0  0.1917E+05  0 -0.1123E+05  0   5041.    
   (  1,  5, 20)  (  1,  4, 20)  (  1,  1, 21)  (  1,  5,  1)  (  1, 10,  1)
  0  -3173.      0  -681.7      0   405.6      0  -224.1      0   99.30    
   (  1, 11,  1)  (  1,  1, 21)  (  1,  2, 19)  (  1,  5, 20)  (  1,  5, 18)
  0   32.32      0  -23.29      0   10.42      0  -5.795      0  -3.666    
   (  1, 11,  5)  (  1, 10,  1)  (  1,  1, 21)  (  1,  1, 21)  (  1,  3,  2)
  0  -1.713      0  -1.446      0  -3.432      0  -10.64      0  -61.91    
   (  1,  1,  5)  (  1,  4,  3)  (  1,  2,  3)  (  1,  5,  9)  (  1,  3,  1)
  0  -398.8      0  -2349.      0  -5139.      0 -0.2962E+05  0 -0.2082E+06
   (  1,  1,  4)  (  1,  5,  2)  (  1,  6, 10)  (  1, 11,  1)  (  1,  5,  8)
  0 -0.1595E+07  0 -0.9761E+07  0 -0.2266E+08  0 -0.2239E+09  0 -0.1316E+10
   (  1,  5, 12)  (  1, 10,  4)  (  1,  1, 20)  (  1,  3, 12)  (  1, 10,  9)
  1  0.3564E+05  0 -0.2880E+05  0  0.1649E+05  0  -6942.      0   3608.    
   (  1,  2,  9)  (  1, 10,  2)  (  1, 11,  2)  (  1, 10,  4)  (  1, 11,  6)
  0  -2107.      0   1744.      0  -333.7      0  -147.0      0   54.51    
   (  1,  2, 20)  (  1,  1, 21)  (  1,  6, 19)  (  1, 10,  2)  (  1,  4, 12)
  0  -36.09      0   14.88      0  -7.082      0   2.274      0  -1.709    
   (  1,  4, 21)  (  1,  5, 10)  (  1,  5,  9)  (  1, 11,  1)  (  1,  6, 18)
  0  -1.503      0  -2.377      0  -7.275      0  -31.33      0  -138.8    
   (  1,  6, 21)  (  1, 10, 20)  (  1,  2, 21)  (  1,  7, 20)  (  1, 11, 19)
  0  -292.4      0  -1647.      0  -8922.      0 -0.6066E+05  0 -0.3572E+06
   (  1, 10,  1)  (  1,  5, 13)  (  1,  1, 21)  (  1,  5, 17)  (  1, 11,  5)
  0 -0.1855E+07  0 -0.4807E+07  0 -0.4087E+08  0 -0.3125E+09  0 -0.2855E+10
   (  1,  9, 17)  (  1,  1, 19)  (  1,  2,  9)  (  1, 10, 13)  (  1,  5, 15)
  1 -0.4258E+05  0  0.3461E+05  0 -0.1197E+05  0 -0.1024E+05  0   5309.    
   (  1,  4,  9)  (  1,  4, 10)  (  1,  5, 13)  (  1, 11,  1)  (  1, 11,  2)
  0  -2770.      0   1386.      0  -441.2      0  -174.3      0  -86.48    
   (  1,  1, 21)  (  1,  2, 21)  (  1,  1, 21)  (  1,  2,  9)  (  1,  4,  4)
  0   44.02      0  -16.47      0  -9.129      0  -4.040      0  -2.449    
   (  1,  1, 21)  (  1,  1, 20)  (  1, 11,  1)  (  1,  3,  9)  (  1,  4,  1)
  0  -1.668      0  -2.333      0  -5.453      0  -28.51      0  -92.99    
   (  1,  1,  3)  (  1,  3,  2)  (  1,  1,  7)  (  1,  5,  1)  (  1,  5,  3)
  0  -666.0      0  -3078.      0  -6493.      0 -0.3964E+05  0 -0.2621E+06
   (  1, 11,  1)  (  1,  4,  2)  (  1,  5,  8)  (  1, 10,  2)  (  1,  5, 15)
  0 -0.1944E+07  0 -0.1061E+08  0 -0.2912E+08  0 -0.2937E+09  0 -0.9664E+09
   (  1,  1, 21)  (  1,  4, 16)  (  1,  1, 19)  (  1,  6, 15)  (  1,  5,  5)
  1 -0.4420E+05  0  0.4186E+05  0  0.1658E+05  0 -0.1192E+05  0   6110.    
   (  1,  2, 21)  (  1,  1, 21)  (  1, 10,  4)  (  1,  1, 21)  (  1,  2, 20)
  0   2073.      0  -925.8      0   373.7      0   173.7      0  -81.82    
   (  1,  5,  8)  (  1,  6, 11)  (  1,  4,  9)  (  1,  6,  9)  (  1,  5,  9)
  0   51.39      0   11.88      0   6.079      0  -4.514      0  -1.700    
   (  1, 11,  1)  (  1,  6,  9)  (  1,  5, 20)  (  1,  7, 20)  (  1,  4,  1)
  0  -1.575      0  -1.883      0  -5.588      0  -35.83      0  -134.0    
   (  1,  1, 21)  (  1, 11, 16)  (  1,  7, 18)  (  1,  5, 17)  (  1,  9, 20)
  0  -596.7      0  -1908.      0  -7981.      0 -0.6156E+05  0 -0.1479E+06
   (  1, 10, 17)  (  1, 11,  3)  (  1,  5, 20)  (  1,  1, 21)  (  1,  7, 16)
  0 -0.6438E+06  0 -0.4805E+07  0 -0.3220E+08  0 -0.2732E+09  0 -0.1554E+10
   (  1,  3, 20)  (  1,  7, 18)  (  1,  5, 15)  (  1,  6, 11)  (  1,  6, 18)
  1  0.4869E+05  0  0.6397E+05  0 -0.2981E+05  0   8488.      0  -4216.    
   (  1,  6,  5)  (  1,  1, 20)  (  1,  1, 21)  (  1, 11,  5)  (  1,  3,  1)
  0  -1718.      0  -722.1      0   315.0      0   229.0      0  -121.2    
   (  1,  6, 11)  (  1, 11,  1)  (  1,  5, 16)  (  1,  2, 21)  (  1,  1, 21)
  0  -54.67      0  -17.92      0  -13.55      0  -3.152      0  -2.519    
   (  1,  5,  1)  (  1,  2,  9)  (  1, 11,  1)  (  1,  1,  4)  (  1,  5,  1)
  0  -1.407      0  -2.049      0  -3.312      0  -19.37      0  -85.98    
   (  1,  5,  8)  (  1,  2,  2)  (  1, 11,  1)  (  1,  2,  4)  (  1, 11,  1)
  0  -402.9      0  -1901.      0  -4297.      0 -0.3213E+05  0 -0.2471E+06
   (  1,  5, 10)  (  1, 10,  2)  (  1,  3,  6)  (  1,  6,  3)  (  1,  7,  6)
  0 -0.1405E+07  0 -0.3667E+07  0 -0.3395E+08  0 -0.1679E+09  0 -0.5279E+09
   (  1,  6,  2)  (  1,  1, 21)  (  1,  3, 15)  (  1,  1, 21)  (  1, 10,  6)
  1  0.4459E+05  0 -0.2471E+05  0  0.1330E+05  0  -5028.      0   3431.    
   (  1, 10,  9)  (  1,  5,  6)  (  1,  9,  9)  (  1,  5,  8)  (  1,  7,  9)
  0   1108.      0  -725.2      0   568.7      0  -278.7      0   65.25    
   (  1,  5,  3)  (  1,  9,  1)  (  1,  1, 20)  (  1,  1, 21)  (  1,  1, 20)
  0  -23.59      0   12.82      0  -7.598      0  -3.791      0  -2.345    
   (  1,  2,  2)  (  1,  6, 12)  (  1,  6, 10)  (  1,  4, 20)  (  1,  5,  2)
  0  -1.575      0  -2.198      0  -6.235      0  -39.74      0  -185.2    
   (  1,  1, 21)  (  1,  5,  1)  (  1,  1,  8)  (  1, 10,  1)  (  1,  5,  3)
  0  -1452.      0 -0.1265E+05  0 -0.4646E+05  0 -0.1225E+06  0 -0.8151E+06
   (  1,  2,  3)  (  1,  2,  1)  (  1,  3,  1)  (  1,  3,  6)  (  1,  4,  1)
  0 -0.3560E+07  0 -0.9346E+07  0 -0.6564E+08  0 -0.3644E+09  0 -0.1205E+10
   (  1,  1,  7)  (  1,  1, 21)  (  1,  1,  7)  (  1,  5,  4)  (  1,  3,  8)
  1 -0.5535E+05  0  0.4225E+05  0 -0.1811E+05  0   9766.      0  -4212.    
   (  1,  5,  2)  (  1,  4,  2)  (  1, 11,  2)  (  1,  2, 20)  (  1,  1, 21)
  0   2107.      0   1001.      0  -697.8      0  -208.5      0   109.9    
   (  1, 11,  1)  (  1,  1, 21)  (  1,  2, 20)  (  1,  5, 19)  (  1,  2, 10)
  0  -42.01      0  -24.01      0  -10.63      0  -7.622      0  -2.699    
   (  1,  5, 18)  (  1,  3, 21)  (  1, 11, 20)  (  1,  2, 21)  (  1, 11, 15)
  0  -1.914      0  -1.433      0  -2.557      0  -12.10      0  -62.95    
   (  1,  5, 16)  (  1, 10, 19)  (  1,  7, 12)  (  1, 10, 16)  (  1,  5, 19)
  0  -238.4      0  -1012.      0  -4160.      0 -0.3237E+05  0 -0.2456E+06
   (  1, 11,  2)  (  1,  5,  7)  (  1,  5, 20)  (  1, 10, 16)  (  1, 10,  9)
  0 -0.1383E+07  0 -0.3743E+07  0 -0.2714E+08  0 -0.1817E+09  0 -0.8053E+09
   (  1,  9, 16)  (  1,  1, 21)  (  1,  1, 12)  (  1,  1, 21)  (  1,  6,  4)
  1 -0.6810E+05  0  0.5008E+05  0 -0.1227E+05  0   9220.      0  -3925.    
   (  1,  2, 20)  (  1,  1, 21)  (  1,  1, 21)  (  1, 11,  1)  (  1, 11,  2)
  0  -1181.      0  -652.5      0   414.6      0  -182.0      0   104.7    
   (  1, 10,  9)  (  1,  2, 19)  (  1,  1, 21)  (  1,  6,  1)  (  1, 10,  1)
  0  -32.66      0  -18.17      0  -9.168      0  -3.532      0  -1.986    
   (  1,  6, 20)  (  1, 11,  1)  (  1,  5, 18)  (  1, 11,  7)  (  1,  1, 15)
  0  -1.625      0  -1.819      0  -5.678      0  -45.33      0  -259.1    
   (  1,  6, 12)  (  1,  9,  8)  (  1,  5, 13)  (  1,  2, 18)  (  1,  5, 20)
  0  -1903.      0  -8185.      0 -0.2101E+05  0 -0.1552E+06  0 -0.6264E+06
   (  1,  1, 21)  (  1,  3, 12)  (  1,  4, 21)  (  1,  7, 17)  (  1,  7, 20)
  0 -0.3441E+07  0 -0.6850E+07  0 -0.5400E+08  0 -0.3281E+09  0 -0.2210E+10
   (  1,  1, 20)  (  1,  8, 11)  (  1,  3, 19)  (  1,  9, 12)  (  1,  2, 21)
  1 -0.4390E+05  0 -0.5318E+05  0  0.1860E+05  0  -7726.      0   7484.    
   (  1,  2,  7)  (  1, 11,  1)  (  1, 11,  1)  (  1,  6, 20)  (  1,  1, 21)
  0  -2691.      0  -715.9      0  -428.6      0  -196.8      0   87.60    
   (  1,  2, 21)  (  1,  3,  8)  (  1,  5,  5)  (  1,  2,  7)  (  1,  4, 21)
  0  -35.40      0  -21.08      0  -11.23      0  -5.630      0  -3.526    
   (  1,  3,  9)  (  1, 11,  1)  (  1,  4,  3)  (  1,  6,  1)  (  1,  7,  9)
  0  -1.762      0  -1.782      0  -2.180      0  -9.539      0  -46.95    
   (  1,  1,  5)  (  1, 11,  3)  (  1,  1,  8)  (  1,  6,  2)  (  1,  5,  9)
  0  -260.3      0  -780.3      0  -3142.      0 -0.2614E+05  0 -0.2162E+06
   (  1,  9,  2)  (  1,  2,  6)  (  1, 11,  1)  (  1,  3,  1)  (  1,  5, 13)
  0 -0.7732E+06  0 -0.2613E+07  0 -0.2890E+08  0 -0.2597E+09  0 -0.1637E+10
   (  1,  2, 21)  (  1,  3, 11)  (  1,  2,  2)  (  1,  5,  1)  (  1,  9, 11)
  1 -0.5283E+05  0 -0.3069E+05  0  0.3641E+05  0 -0.1446E+05  0   6691.    
   (  1,  6, 20)  (  1, 11,  5)  (  1, 11,  2)  (  1, 11,  1)  (  1,  1, 21)
  0  -4281.      0   703.1      0  -490.3      0   200.0      0   103.9    
   (  1,  1, 21)  (  1,  4,  3)  (  1,  5,  4)  (  1,  5,  5)  (  1,  1, 21)
  0  -46.09      0   18.68      0   8.055      0  -4.425      0  -1.647    
   (  1,  4, 12)  (  1,  4, 10)  (  1,  5,  9)  (  1,  3, 19)  (  1,  6,  1)
  0  -1.801      0  -1.559      0  -4.176      0  -14.45      0  -84.38    
   (  1,  5, 20)  (  1, 11,  1)  (  1,  5, 21)  (  1, 11, 16)  (  1,  1, 20)
  0  -376.8      0  -826.9      0  -5441.      0 -0.3129E+05  0 -0.1634E+06
   (  1, 11, 15)  (  1, 11,  3)  (  1, 10, 16)  (  1,  6, 20)  (  1,  9, 18)
  0 -0.4244E+06  0 -0.2605E+07  0 -0.1728E+08  0 -0.1810E+09  0 -0.1304E+10
   (  1,  2, 21)  (  1, 11, 17)  (  1,  4, 21)  (  1,  1, 21)  (  1, 11, 16)
  1  0.4174E+05  0 -0.4012E+05  0 -0.1507E+05  0  -5618.      0   3181.    
   (  1, 11,  2)  (  1, 11,  1)  (  1,  2, 21)  (  1,  1,  8)  (  1,  1,  9)
  0   1434.      0  -1128.      0   548.7      0  -122.2      0   96.85    
   (  1,  1, 21)  (  1,  1, 21)  (  1,  2, 20)  (  1, 10,  1)  (  1,  5,  1)
  0  -43.68      0  -14.46      0  -5.978      0  -2.389      0  -1.878    
   (  1, 10,  3)  (  1,  5, 11)  (  1,  5,  5)  (  1, 11,  2)  (  1,  4,  3)
  0  -1.492      0  -2.468      0  -6.689      0  -23.92      0  -136.7    
   (  1,  1,  3)  (  1,  5,  2)  (  1, 11,  1)  (  1,  3,  7)  (  1,  3,  5)
  0  -879.6      0  -4914.      0 -0.2647E+05  0 -0.1299E+06  0 -0.3949E+06
   (  1,  6,  4)  (  1,  4,  6)  (  1,  1, 21)  (  1,  3,  8)  (  1,  3, 21)
  0 -0.2183E+07  0 -0.1553E+08  0 -0.3165E+08  0 -0.2518E+09  0 -0.1844E+10
   (  1,  5,  9)  (  1, 10,  1)  (  1,  1, 21)  (  1,  5, 17)  (  1,  6, 10)

 MAXIMUM RESIDUAL FOR EACH ITERATION (1 INDICATES THE FIRST INNER ITERATION):

    RESIDUAL       RESIDUAL       RESIDUAL       RESIDUAL       RESIDUAL    
   LAYER,ROW,COL  LAYER,ROW,COL  LAYER,ROW,COL  LAYER,ROW,COL  LAYER,ROW,COL
 ---------------------------------------------------------------------------
  1   46.56      0  -85.01      0  -236.0      0  -313.1      0  -521.5    
   (  1,  6, 11)  (  1,  6, 11)  (  1,  6, 11)  (  1,  6, 11)  (  1,  5, 12)
  0  -1084.      0  -1745.      0  -2511.      0  -7606.      0 -0.1892E+05
   (  1,  5, 12)  (  1,  5, 12)  (  1,  8,  9)  (  1,  8,  9)  (  1,  7, 13)
  0 -0.3673E+05  0 -0.9756E+05  0  0.1651E+06  0  0.3756E+06  0  0.1469E+07
   (  1,  4, 13)  (  1,  8,  9)  (  1,  4, 12)  (  1,  4, 12)  (  1,  6, 11)
  0  0.3184E+07  0  0.5179E+07  0  0.1562E+08  0  0.3413E+08  0  0.8980E+08
   (  1,  6, 11)  (  1,  6, 11)  (  1,  7, 10)  (  1,  7, 10)  (  1,  4, 13)
  0  0.1734E+09  0  0.5886E+09  0  0.1419E+10  0  0.2399E+10  0  0.7683E+10
   (  1,  4, 13)  (  1,  4, 13)  (  1,  4, 13)  (  1,  4, 13)  (  1,  9,  8)
  0  0.9317E+10  0  0.3447E+11  0  0.6757E+11  0 -0.7535E+11  0  0.2204E+12
   (  1,  9,  8)  (  1,  6, 10)  (  1,  6, 10)  (  1,  4,  2)  (  1, 10,  7)
  1 -0.9726E+11  0 -0.5164E+11  0  0.2609E+11  0  0.1061E+11  0  0.7288E+10
   (  1,  4, 13)  (  1,  8,  9)  (  1,  6, 10)  (  1,  4, 20)  (  1,  9,  8)
  0  0.2497E+10  0  0.1383E+10  0  0.8031E+09  0  0.4170E+09  0  0.1972E+09
   (  1,  3,  3)  (  1,  4, 13)  (  1,  8,  9)  (  1,  4, 13)  (  1,  4, 13)
  0  0.8028E+08  0  0.3075E+08  0 -0.1329E+08  0  0.5377E+07  0  0.2029E+07
   (  1,  4, 13)  (  1,  4, 13)  (  1,  4, 12)  (  1,  4, 13)  (  1,  6, 11)
  0  0.9087E+06  0  0.3298E+06  0  0.1277E+06  0  0.5492E+05  0 -0.2298E+05
   (  1,  6, 11)  (  1,  6, 11)  (  1,  8,  8)  (  1,  5, 12)  (  1,  7, 13)
  0 -0.1080E+05  0  -3251.      0  -2456.      0   1337.      0  -2800.    
   (  1,  4, 13)  (  1,  7, 13)  (  1,  5, 12)  (  1,  7, 13)  (  1, 10,  7)
  0  0.1051E+05  0  0.2227E+05  0  0.3971E+05  0  0.1235E+06  0  0.2898E+06
   (  1,  5, 12)  (  1,  5, 12)  (  1,  5, 12)  (  1,  6, 11)  (  1,  6, 11)
  1 -0.9530E+07  0  0.3709E+07  0  0.2003E+07  0  0.7426E+06  0  0.3219E+06
   (  1,  6, 14)  (  1,  7, 14)  (  1,  7, 14)  (  1,  7, 14)  (  1,  5,  4)
  0 -0.1539E+06  0  0.7867E+05  0 -0.2777E+05  0 -0.1993E+05  0  -6792.    
   (  1,  8, 12)  (  1,  4,  8)  (  1,  8,  5)  (  1,  8,  5)  (  1,  8,  5)
  0  -3186.      0  -1495.      0  -623.7      0  -282.3      0  -99.65    
   (  1,  7,  3)  (  1,  3, 10)  (  1,  3, 10)  (  1,  5, 20)  (  1,  3, 10)
  0  -43.13      0  -20.04      0   46.27      0   86.44      0  -289.4    
   (  1, 10,  3)  (  1,  4, 20)  (  1,  9,  8)  (  1,  5,  1)  (  1,  4,  4)
  0  -461.3      0   839.5      0   1622.      0  -4034.      0  0.1040E+05
   (  1,  8, 12)  (  1,  3,  7)  (  1, 10,  4)  (  1,  5,  4)  (  1,  4,  4)
  0  0.3690E+05  0  0.5233E+05  0  0.1350E+06  0  0.3184E+06  0  0.6857E+06
   (  1,  4,  4)  (  1,  2,  7)  (  1,  9, 12)  (  1,  9, 12)  (  1,  9, 12)
  1  0.5650E+07  0  0.2430E+07  0 -0.1142E+07  0 -0.4638E+06  0  0.1836E+06
   (  1, 10, 13)  (  1, 10, 13)  (  1, 10, 12)  (  1,  5,  4)  (  1, 11, 12)
  0  0.9290E+05  0  0.4055E+05  0  0.1875E+05  0   9842.      0   3234.    
   (  1, 11, 12)  (  1, 11, 12)  (  1,  3,  5)  (  1,  3,  5)  (  1,  3,  5)
  0   1842.      0   775.0      0   325.0      0   179.9      0   54.86    
   (  1, 10,  3)  (  1,  4, 15)  (  1, 10,  4)  (  1,  2,  6)  (  1, 10,  9)
  0  -30.62      0  -20.99      0   41.19      0   72.39      0  -166.1    
   (  1,  4,  4)  (  1,  5, 20)  (  1,  4,  2)  (  1,  4, 15)  (  1,  4, 16)
  0  -442.5      0   1201.      0   4512.      0  -6410.      0 -0.1221E+05
   (  1,  4,  5)  (  1,  2,  4)  (  1,  4, 17)  (  1,  4,  9)  (  1,  6,  8)
  0 -0.3772E+05  0 -0.9164E+05  0  0.2239E+06  0 -0.4935E+06  0  0.9234E+06
   (  1,  5, 20)  (  1,  6, 16)  (  1,  6, 18)  (  1,  2,  5)  (  1,  6, 18)
  1 -0.7398E+07  0 -0.2931E+07  0 -0.9571E+06  0 -0.4336E+06  0 -0.1792E+06
   (  1,  2, 10)  (  1,  2, 10)  (  1,  2,  4)  (  1,  2, 10)  (  1,  5, 20)
  0 -0.8858E+05  0 -0.5036E+05  0 -0.2050E+05  0 -0.1204E+05  0   4177.    
   (  1,  2, 19)  (  1,  3,  9)  (  1,  3,  9)  (  1,  3,  9)  (  1,  5,  8)
  0  -2037.      0  -853.0      0  -372.6      0  -160.8      0   64.26    
   (  1,  4,  5)  (  1,  1, 11)  (  1,  4,  8)  (  1,  2,  6)  (  1, 10,  8)
  0  -23.25      0   23.60      0   48.59      0   145.7      0   337.9    
   (  1, 10,  9)  (  1, 10,  9)  (  1,  3,  3)  (  1,  4, 11)  (  1, 10, 16)
  0   784.3      0   1615.      0  -3088.      0   8742.      0  0.2646E+05
   (  1,  2,  3)  (  1,  9,  3)  (  1, 10, 16)  (  1, 10,  8)  (  1,  4, 19)
  0  0.5931E+05  0 -0.1276E+06  0 -0.2078E+06  0  0.5079E+06  0 -0.1283E+07
   (  1,  4, 17)  (  1,  9, 16)  (  1,  9, 16)  (  1,  3,  9)  (  1,  4, 19)
  1 -0.5513E+07  0 -0.2374E+07  0 -0.1167E+07  0 -0.4245E+06  0 -0.1756E+06
   (  1,  2, 10)  (  1,  2, 10)  (  1,  2, 10)  (  1,  2, 10)  (  1,  1, 11)
  0 -0.7667E+05  0 -0.3574E+05  0  0.1673E+05  0  -9616.      0  -3038.    
   (  1,  1, 11)  (  1,  1, 11)  (  1,  4, 16)  (  1,  2, 21)  (  1,  9, 19)
  0  -1346.      0   696.9      0   327.7      0   213.4      0   72.84    
   (  1, 10, 21)  (  1,  2,  4)  (  1,  8,  9)  (  1,  1,  9)  (  1,  5, 19)
  0  -39.72      0   14.43      0   37.68      0  -91.52      0  -201.4    
   (  1,  3,  8)  (  1,  2,  3)  (  1,  5,  2)  (  1,  1, 20)  (  1,  2, 17)
  0  -496.5      0   1166.      0   1993.      0   4727.      0  0.1273E+05
   (  1,  5,  7)  (  1,  4,  7)  (  1,  7, 17)  (  1,  8, 18)  (  1,  3,  4)
  0  0.3931E+05  0  0.6693E+05  0  0.1499E+06  0 -0.4731E+06  0 -0.9661E+06
   (  1,  9,  3)  (  1,  9,  3)  (  1,  9, 14)  (  1,  5, 14)  (  1,  2, 18)
  1  0.4684E+07  0 -0.2078E+07  0 -0.1346E+07  0 -0.5016E+06  0 -0.1327E+06
   (  1,  8, 10)  (  1, 11, 11)  (  1, 10,  2)  (  1, 10,  2)  (  1,  5, 16)
  0  0.6939E+05  0 -0.4994E+05  0 -0.1946E+05  0   9781.      0   4017.    
   (  1,  2, 12)  (  1,  4,  9)  (  1,  9,  8)  (  1,  2, 12)  (  1,  2, 12)
  0  -1842.      0  -962.5      0  -333.2      0   128.9      0   53.12    
   (  1, 10, 12)  (  1,  5,  8)  (  1, 10, 12)  (  1,  4, 15)  (  1,  3,  4)
  0  -26.61      0  -33.13      0  -44.90      0   95.86      0  -258.1    
   (  1,  8,  5)  (  1,  4,  8)  (  1, 11,  7)  (  1,  7,  8)  (  1,  6,  5)
  0   695.9      0   913.9      0   3711.      0   8513.      0 -0.1938E+05
   (  1,  2,  7)  (  1,  2,  7)  (  1,  2, 14)  (  1,  5, 18)  (  1, 10, 12)
  0  0.6555E+05  0  0.9416E+05  0 -0.2443E+06  0  0.6316E+06  0  0.1510E+07
   (  1, 10,  5)  (  1, 10,  5)  (  1,  5, 17)  (  1,  8,  9)  (  1, 10, 13)
  1 -0.4326E+07  0 -0.1857E+07  0 -0.6934E+06  0  0.3244E+06  0 -0.1708E+06
   (  1,  2, 11)  (  1,  2, 11)  (  1,  6, 21)  (  1,  7, 11)  (  1,  5, 14)
  0  0.8915E+05  0  0.4291E+05  0  0.2224E+05  0  -7594.      0   2870.    
   (  1, 10,  5)  (  1,  4,  6)  (  1,  6, 12)  (  1,  5,  3)  (  1,  7,  3)
  0  -2023.      0   750.5      0  -421.6      0  -180.1      0   88.47    
   (  1,  4,  5)  (  1,  3,  4)  (  1,  1,  6)  (  1,  3,  5)  (  1,  5, 20)
  0   44.35      0   22.45      0  -31.37      0  -102.5      0  -263.2    
   (  1,  5,  3)  (  1,  4,  9)  (  1,  5,  3)  (  1,  5,  3)  (  1,  9, 10)
  0  -504.6      0  -875.4      0  -2252.      0   7761.      0  0.1860E+05
   (  1,  9, 10)  (  1,  9, 10)  (  1,  9, 10)  (  1,  6,  4)  (  1,  6,  4)
  0  0.4571E+05  0  0.9099E+05  0  0.2194E+06  0  0.5485E+06  0 -0.1112E+07
   (  1,  6,  4)  (  1,  6,  4)  (  1,  6,  4)  (  1,  4,  5)  (  1,  7, 18)
  1  0.4820E+07  0  0.2208E+07  0 -0.9343E+06  0  0.6681E+06  0  0.1934E+06
   (  1,  6, 20)  (  1,  6, 20)  (  1,  6, 21)  (  1,  4,  8)  (  1,  4,  8)
  0  0.5854E+05  0  0.3017E+05  0 -0.1305E+05  0   6162.      0   3054.    
   (  1,  5, 21)  (  1,  5, 13)  (  1,  2, 17)  (  1,  4, 15)  (  1,  4, 15)
  0   1331.      0   644.5      0   320.1      0   149.2      0  -56.04    
   (  1,  5, 21)  (  1,  8, 13)  (  1,  6, 14)  (  1,  6, 14)  (  1,  3, 17)
  0   21.22      0  -28.71      0   66.26      0  -144.8      0  -402.2    
   (  1,  7,  9)  (  1,  5,  8)  (  1, 10,  5)  (  1,  5,  9)  (  1,  1, 18)
  0  -972.9      0   2016.      0  -4128.      0   6610.      0  0.1731E+05
   (  1,  1, 18)  (  1, 10,  8)  (  1,  4,  7)  (  1,  5, 14)  (  1, 10,  4)
  0 -0.4993E+05  0 -0.1126E+06  0  0.1882E+06  0 -0.5232E+06  0  0.1196E+07
   (  1,  4, 14)  (  1,  4,  5)  (  1,  2, 17)  (  1,  4,  8)  (  1,  9, 12)
  1 -0.5334E+07  0  0.2478E+07  0  0.9828E+06  0  0.4837E+06  0  0.2186E+06
   (  1,  4, 15)  (  1,  6, 21)  (  1,  6, 21)  (  1,  6, 21)  (  1,  6, 21)
  0  0.8354E+05  0  0.3951E+05  0 -0.1662E+05  0  0.1107E+05  0   4850.    
   (  1,  6, 21)  (  1,  6, 21)  (  1,  6, 20)  (  1,  5,  5)  (  1,  8,  9)
  0   2015.      0   861.0      0  -364.4      0   164.5      0  -85.28    
   (  1,  5,  4)  (  1,  4, 17)  (  1,  3, 17)  (  1,  6, 11)  (  1,  2, 18)
  0   38.97      0  -22.49      0  -29.70      0   75.05      0   198.8    
   (  1,  4,  8)  (  1,  4, 19)  (  1,  4, 15)  (  1,  8, 13)  (  1,  4,  9)
  0  -369.3      0   706.5      0   1777.      0   6227.      0 -0.1181E+05
   (  1,  5, 19)  (  1,  2,  6)  (  1,  9,  2)  (  1,  4, 15)  (  1,  2, 17)
  0  0.4307E+05  0  0.9452E+05  0  0.1964E+06  0 -0.3728E+06  0 -0.1037E+07
   (  1,  5,  8)  (  1,  4, 11)  (  1,  2,  2)  (  1,  9, 11)  (  1,  2,  2)
  1 -0.3894E+07  0  0.2174E+07  0  0.7726E+06  0  0.3387E+06  0  0.1573E+06
   (  1,  6, 18)  (  1,  5,  1)  (  1,  6, 21)  (  1,  6, 21)  (  1,  6, 21)
  0 -0.6859E+05  0 -0.4750E+05  0  0.1793E+05  0 -0.1018E+05  0   3631.    
   (  1,  3,  4)  (  1,  3,  4)  (  1,  6,  7)  (  1,  4,  3)  (  1,  8,  8)
  0   1697.      0   697.4      0   253.0      0   98.84      0  -59.97    
   (  1,  8,  8)  (  1,  5,  5)  (  1,  7, 20)  (  1,  3,  1)  (  1,  5,  2)
  0  -20.34      0   29.30      0   78.56      0   205.1      0  -510.3    
   (  1,  5, 13)  (  1, 10,  8)  (  1,  8,  4)  (  1,  5,  2)  (  1,  5, 20)
  0   958.7      0   1890.      0   4174.      0 -0.1124E+05  0  0.2133E+05
   (  1,  6, 12)  (  1,  6, 12)  (  1,  8, 17)  (  1,  4,  8)  (  1,  7,  2)
  0  0.6008E+05  0  0.1169E+06  0  0.2214E+06  0  0.6068E+06  0  0.9539E+06
   (  1,  3,  8)  (  1,  3,  8)  (  1,  4, 11)  (  1,  2,  9)  (  1, 10, 15)
  1 -0.7024E+07  0 -0.2797E+07  0  0.9316E+06  0 -0.3903E+06  0 -0.2129E+06
   (  1,  3, 12)  (  1,  3, 12)  (  1,  3, 11)  (  1,  3,  4)  (  1,  4,  2)
  0 -0.1073E+06  0  0.4113E+05  0 -0.2192E+05  0  0.1166E+05  0   4429.    
   (  1,  4,  2)  (  1,  3,  8)  (  1,  4, 11)  (  1,  2,  9)  (  1,  2,  9)
  0  -2108.      0   1045.      0  -419.5      0   153.7      0  -80.22    
   (  1,  2,  8)  (  1,  2,  9)  (  1,  5, 10)  (  1,  4,  8)  (  1,  4, 13)
  0  -39.45      0  -20.21      0   38.15      0   109.5      0   238.8    
   (  1,  6, 11)  (  1,  4,  2)  (  1,  6, 11)  (  1,  2,  9)  (  1, 10,  2)
  0   565.8      0   1133.      0   3189.      0   5266.      0 -0.1558E+05
   (  1,  2, 12)  (  1,  2, 12)  (  1,  4,  8)  (  1,  3, 10)  (  1,  3,  7)
  0 -0.2656E+05  0 -0.5957E+05  0  0.1832E+06  0  0.3673E+06  0 -0.7439E+06
   (  1,  1,  5)  (  1,  3,  2)  (  1,  9,  8)  (  1,  6, 10)  (  1,  2, 12)
  1  0.6981E+07  0  0.3113E+07  0  0.1455E+07  0  0.6443E+06  0  0.2190E+06
   (  1,  6, 21)  (  1,  6, 21)  (  1,  6, 21)  (  1,  6, 21)  (  1,  6, 21)
  0  0.8514E+05  0  0.3815E+05  0 -0.1598E+05  0  0.1064E+05  0   6108.    
   (  1,  6, 21)  (  1,  6, 21)  (  1,  6,  9)  (  1,  2,  9)  (  1,  2,  9)
  0  -1809.      0  -746.9      0   336.7      0   111.6      0   59.23    
   (  1,  5, 10)  (  1,  9,  4)  (  1,  5, 15)  (  1,  3, 17)  (  1,  9,  8)
  0   23.87      0   27.65      0  -37.55      0  -77.84      0  -247.9    
   (  1,  5, 10)  (  1,  4, 11)  (  1,  9,  8)  (  1,  4,  3)  (  1,  4,  3)
  0  -612.7      0   1875.      0   3762.      0  -6866.      0  0.1909E+05
   (  1,  4, 11)  (  1,  2,  9)  (  1,  2,  9)  (  1,  4, 11)  (  1,  2,  9)
  0 -0.5209E+05  0  0.1465E+06  0 -0.1977E+06  0 -0.4737E+06  0 -0.1259E+07
   (  1,  7, 13)  (  1, 10, 16)  (  1,  9,  8)  (  1,  9,  8)  (  1,  2, 17)
  1 -0.4075E+07  0 -0.1805E+07  0 -0.9021E+06  0  0.4311E+06  0  0.1913E+06
   (  1,  3, 12)  (  1,  9,  9)  (  1, 11, 12)  (  1,  4,  8)  (  1,  4, 18)
  0 -0.8398E+05  0  0.4546E+05  0 -0.2100E+05  0   7785.      0  -4424.    
   (  1,  9,  9)  (  1,  8, 18)  (  1,  4, 11)  (  1, 10, 12)  (  1,  4, 11)
  0  -2451.      0  -936.0      0   314.0      0   142.5      0  -53.94    
   (  1,  4, 11)  (  1,  4, 11)  (  1, 10, 12)  (  1, 10, 12)  (  1,  5,  3)
  0  -23.58      0  -22.17      0   56.10      0  -89.22      0   195.4    
   (  1,  4, 16)  (  1, 10, 16)  (  1,  1, 16)  (  1, 11, 14)  (  1,  4, 17)
  0   517.3      0   1334.      0   3168.      0   5507.      0  0.2118E+05
   (  1,  2,  3)  (  1, 10, 12)  (  1, 10, 12)  (  1, 10, 12)  (  1,  4, 19)
  0  0.4779E+05  0  0.1043E+06  0 -0.2438E+06  0 -0.4274E+06  0 -0.1421E+07
   (  1,  9,  2)  (  1,  2, 16)  (  1,  4, 20)  (  1,  9, 15)  (  1,  4, 19)
  1 -0.4123E+07  0  0.1806E+07  0 -0.9176E+06  0 -0.4253E+06  0 -0.1444E+06
   (  1,  8, 11)  (  1, 10,  9)  (  1, 10,  8)  (  1, 10,  8)  (  1, 10, 14)
  0 -0.8122E+05  0  0.3147E+05  0 -0.1542E+05  0  -7454.      0  -3060.    
   (  1,  5,  2)  (  1,  4,  2)  (  1,  8, 14)  (  1,  4,  3)  (  1,  8, 14)
  0  -1495.      0   585.9      0   257.9      0   120.0      0  -46.72    
   (  1,  8, 14)  (  1,  4, 16)  (  1,  8, 11)  (  1, 10,  9)  (  1,  8, 10)
  0   19.57      0   25.40      0  -73.94      0  -152.7      0   357.8    
   (  1,  1,  5)  (  1,  5, 12)  (  1,  5, 15)  (  1,  5, 15)  (  1,  7,  2)
  0  -836.6      0   3026.      0  -5597.      0  0.1073E+05  0  0.1905E+05
   (  1, 10,  8)  (  1, 10,  7)  (  1, 10,  4)  (  1,  4, 18)  (  1,  5, 13)
  0  0.4862E+05  0  0.8635E+05  0  0.1748E+06  0 -0.5049E+06  0 -0.1091E+07
   (  1,  5, 13)  (  1,  4, 16)  (  1,  4, 16)  (  1,  7,  4)  (  1,  9, 16)
  1  0.4349E+07  0  0.1941E+07  0  0.8257E+06  0  0.2575E+06  0  0.1139E+06
   (  1,  9, 12)  (  1,  9, 12)  (  1,  3, 16)  (  1,  9, 12)  (  1,  9, 12)
  0 -0.6807E+05  0 -0.3902E+05  0 -0.1202E+05  0  -5355.      0  -2139.    
   (  1,  3, 18)  (  1,  3, 18)  (  1,  6, 20)  (  1,  6, 20)  (  1,  5, 15)
  0  -1053.      0   429.9      0  -240.3      0  -104.4      0  -53.94    
   (  1,  5, 19)  (  1,  6,  9)  (  1,  9, 15)  (  1,  9,  9)  (  1,  3, 19)
  0   35.34      0   35.20      0   59.40      0  -143.7      0   301.2    
   (  1,  9, 15)  (  1,  3, 19)  (  1,  9,  9)  (  1,  9, 15)  (  1, 10, 19)
  0   572.8      0   1656.      0  -2712.      0  -6598.      0 -0.1860E+05
   (  1,  2, 17)  (  1,  3, 20)  (  1,  6, 14)  (  1,  6, 14)  (  1,  7, 19)
  0 -0.5669E+05  0  0.8324E+05  0 -0.2201E+06  0  0.4972E+06  0 -0.1344E+07
   (  1,  3, 15)  (  1,  8, 17)  (  1,  9, 16)  (  1, 10,  8)  (  1,  8, 18)
  1  0.4371E+07  0  0.1540E+07  0  0.6833E+06  0  0.3334E+06  0  0.1288E+06
   (  1,  3,  9)  (  1,  3,  9)  (  1,  5,  7)  (  1, 11,  7)  (  1, 10, 11)
  0  0.7092E+05  0 -0.3162E+05  0  0.1624E+05  0   7702.      0   3501.    
   (  1, 10, 11)  (  1,  6,  2)  (  1,  4,  2)  (  1,  2, 10)  (  1,  6,  6)
  0   1390.      0   598.2      0   261.4      0  -114.3      0  -44.58    
   (  1,  6,  6)  (  1,  6,  6)  (  1,  6,  6)  (  1,  5, 20)  (  1, 10,  8)
  0   21.21      0  -37.72      0  -69.57      0   201.9      0  -445.9    
   (  1,  4,  9)  (  1,  3,  8)  (  1,  6,  6)  (  1,  4, 16)  (  1,  8, 17)
  0   1126.      0   2792.      0   5397.      0  0.1136E+05  0 -0.2377E+05
   (  1,  7,  2)  (  1,  7,  2)  (  1,  7,  2)  (  1,  7,  2)  (  1,  4, 16)
  0  0.3935E+05  0 -0.1018E+06  0 -0.2749E+06  0  0.7271E+06  0  0.1970E+07
   (  1,  8, 14)  (  1, 10, 15)  (  1,  9, 19)  (  1,  8, 13)  (  1,  8, 13)
  1 -0.6136E+07  0 -0.2452E+07  0 -0.1002E+07  0  0.4589E+06  0 -0.1693E+06
   (  1,  5, 18)  (  1,  5, 18)  (  1,  5, 18)  (  1, 10,  5)  (  1,  6,  2)
  0 -0.9799E+05  0  0.3470E+05  0  0.2222E+05  0  -7497.      0   4926.    
   (  1,  5,  8)  (  1,  9,  6)  (  1,  8, 17)  (  1,  6, 17)  (  1,  5, 18)
  0   2478.      0  -919.4      0  -620.0      0   209.5      0   150.6    
   (  1,  5, 18)  (  1,  9,  3)  (  1,  2,  8)  (  1,  2,  9)  (  1,  5, 14)
  0  -43.84      0   19.37      0  -35.03      0  -104.3      0  -218.4    
   (  1,  9,  2)  (  1,  4, 15)  (  1,  6, 17)  (  1,  3,  8)  (  1,  6, 17)
  0  -725.1      0  -1705.      0  -2969.      0   5626.      0  0.1825E+05
   (  1,  5,  3)  (  1,  2, 21)  (  1,  2, 21)  (  1,  1, 21)  (  1,  9,  6)
  0  0.4623E+05  0  0.8157E+05  0 -0.1908E+06  0 -0.4653E+06  0 -0.1135E+07
   (  1,  3,  8)  (  1,  8, 16)  (  1,  8, 15)  (  1,  4, 12)  (  1,  4, 19)
  1 -0.8302E+07  0  0.3321E+07  0 -0.1218E+07  0 -0.4998E+06  0  0.2094E+06
   (  1,  2, 10)  (  1,  5,  6)  (  1,  2, 10)  (  1,  2, 10)  (  1,  2,  9)
  0  0.8364E+05  0  0.4815E+05  0  0.2339E+05  0 -0.1005E+05  0  -5442.    
   (  1, 10,  8)  (  1,  5,  2)  (  1,  5,  2)  (  1,  8,  8)  (  1,  8,  8)
  0  -2299.      0   935.1      0   445.0      0   191.1      0   75.36    
   (  1,  6,  2)  (  1,  1, 10)  (  1,  2, 19)  (  1,  1, 10)  (  1,  4,  9)
  0  -24.15      0  -20.75      0   52.27      0   102.8      0   258.8    
   (  1,  4, 11)  (  1,  9,  8)  (  1,  4,  5)  (  1,  8,  2)  (  1,  3,  5)
  0   582.6      0   1307.      0   2449.      0   7060.      0  0.1564E+05
   (  1,  5, 11)  (  1,  3,  8)  (  1,  2,  8)  (  1,  4,  4)  (  1,  5, 10)
  0  0.4312E+05  0  0.9686E+05  0  0.1840E+06  0 -0.3902E+06  0  0.8212E+06
   (  1,  4, 12)  (  1,  1, 10)  (  1,  2,  6)  (  1,  9,  8)  (  1,  4,  8)
  1 -0.5279E+07  0 -0.2067E+07  0  0.8365E+06  0 -0.3868E+06  0 -0.1852E+06
   (  1,  9, 13)  (  1,  9, 13)  (  1,  9, 12)  (  1,  8,  9)  (  1,  5, 12)
  0  0.1074E+06  0  0.5615E+05  0 -0.2030E+05  0 -0.1193E+05  0  -4155.    
   (  1,  3,  6)  (  1,  3,  6)  (  1,  6, 11)  (  1,  6, 11)  (  1,  4,  6)
  0  -1847.      0  -685.5      0   292.4      0   140.2      0  -37.14    
   (  1,  8,  5)  (  1,  7,  3)  (  1,  9,  6)  (  1,  4,  7)  (  1,  9,  5)
  0   23.81      0  -26.12      0   45.81      0  -113.6      0  -300.0    
   (  1,  5,  8)  (  1,  5, 15)  (  1,  5,  7)  (  1,  5,  4)  (  1,  2,  5)
  0  -541.3      0   1488.      0   2152.      0  -5930.      0 -0.1741E+05
   (  1,  2, 17)  (  1, 10, 11)  (  1, 10, 11)  (  1,  5,  7)  (  1,  5,  7)
  0 -0.2621E+05  0 -0.5767E+05  0  0.1588E+06  0 -0.5734E+06  0 -0.1494E+07
   (  1,  5,  7)  (  1,  7,  6)  (  1,  2, 19)  (  1,  8,  3)  (  1,  8,  3)
  1  0.6978E+07  0  0.3084E+07  0  0.1136E+07  0  0.6081E+06  0  0.2833E+06
   (  1, 11, 12)  (  1, 11, 12)  (  1, 11, 12)  (  1, 11, 12)  (  1,  8,  8)
  0 -0.1146E+06  0 -0.4950E+05  0  0.2238E+05  0  0.1085E+05  0  -4828.    
   (  1,  8,  9)  (  1,  8,  9)  (  1,  3,  5)  (  1,  3,  5)  (  1,  4,  5)
  0   2178.      0   1140.      0   420.8      0   165.0      0   75.84    
   (  1, 10, 13)  (  1,  5,  5)  (  1,  5,  5)  (  1,  5,  6)  (  1,  3, 19)
  0   33.41      0   21.11      0  -41.67      0   63.24      0   200.0    
   (  1,  3, 19)  (  1,  1,  6)  (  1,  3, 19)  (  1,  3,  8)  (  1,  8,  9)
  0   447.5      0   1092.      0   1887.      0  -4383.      0  0.1206E+05
   (  1,  8,  9)  (  1,  1,  5)  (  1,  1,  5)  (  1, 10, 12)  (  1,  3,  9)
  0 -0.2795E+05  0  0.5708E+05  0 -0.1264E+06  0 -0.4677E+06  0 -0.8131E+06
   (  1,  6, 10)  (  1,  3,  2)  (  1,  7,  4)  (  1,  7,  5)  (  1,  7,  5)
  1 -0.6534E+07  0  0.2556E+07  0  0.1116E+07  0  0.5622E+06  0  0.2354E+06
   (  1,  6, 14)  (  1,  9, 11)  (  1,  9, 11)  (  1,  9, 11)  (  1,  9, 11)
  0 -0.7454E+05  0  0.3191E+05  0  0.1215E+05  0   7437.      0  -3071.    
   (  1,  4,  5)  (  1,  3, 16)  (  1,  8,  2)  (  1,  4, 19)  (  1,  5, 14)
  0  -1455.      0   667.5      0   279.3      0  -116.7      0  -48.51    
   (  1,  5,  7)  (  1,  6, 14)  (  1, 10, 10)  (  1,  4,  5)  (  1,  8, 10)
  0  -23.76      0   28.84      0   66.06      0  -143.0      0   321.3    
   (  1,  3,  6)  (  1,  8, 10)  (  1,  8, 10)  (  1,  8,  9)  (  1,  4, 13)
  0   655.9      0  -1022.      0   2926.      0   6522.      0 -0.1971E+05
   (  1,  8,  8)  (  1,  9,  9)  (  1,  3,  5)  (  1,  4,  7)  (  1,  5, 15)
  0 -0.4110E+05  0 -0.1166E+06  0 -0.2317E+06  0 -0.5956E+06  0 -0.1018E+07
   (  1,  8, 10)  (  1,  5, 14)  (  1,  5, 14)  (  1,  8, 10)  (  1,  8, 10)
  1  0.5501E+07  0  0.2150E+07  0 -0.8497E+06  0 -0.4496E+06  0 -0.2148E+06
   (  1,  7,  2)  (  1,  7,  2)  (  1,  6,  2)  (  1,  6,  2)  (  1,  6,  2)
  0 -0.7858E+05  0 -0.4721E+05  0 -0.1418E+05  0   8511.      0   3259.    
   (  1,  4,  3)  (  1,  4,  3)  (  1,  4,  8)  (  1,  6,  3)  (  1,  6,  3)
  0  -1396.      0   706.8      0   308.3      0   89.65      0   42.74    
   (  1,  5,  3)  (  1,  6,  3)  (  1,  6,  3)  (  1,  6,  3)  (  1,  4, 16)
  0  -20.10      0   46.03      0  -122.6      0  -225.9      0   579.5    
   (  1,  5,  5)  (  1,  5,  3)  (  1,  4,  2)  (  1,  4,  2)  (  1,  5,  2)
  0  -1061.      0  -1642.      0  -2761.      0  0.1014E+05  0  0.3200E+05
   (  1,  4,  2)  (  1,  4,  2)  (  1,  4,  5)  (  1,  4,  2)  (  1,  4,  2)
  0 -0.4750E+05  0 -0.9388E+05  0 -0.2521E+06  0 -0.7147E+06  0  0.1920E+07
   (  1,  5,  2)  (  1,  5,  2)  (  1,  3,  5)  (  1,  3,  5)  (  1,  5,  3)
  1 -0.5455E+07  0 -0.2023E+07  0  0.9011E+06  0  0.4005E+06  0  0.2330E+06
   (  1,  8, 14)  (  1,  8, 14)  (  1,  3,  6)  (  1,  3,  6)  (  1,  3,  6)
  0  0.1055E+06  0  0.4343E+05  0  0.2467E+05  0  0.1334E+05  0   7122.    
   (  1,  9,  2)  (  1,  2,  7)  (  1,  2,  7)  (  1,  6,  3)  (  1,  6,  3)
  0   3260.      0   1215.      0   387.2      0   168.3      0  -80.87    
   (  1,  6,  3)  (  1,  6,  3)  (  1,  6,  3)  (  1,  9,  3)  (  1,  7, 11)
  0   39.47      0   18.89      0   27.14      0  -68.82      0   184.9    
   (  1,  9,  9)  (  1,  2, 19)  (  1,  9, 14)  (  1,  4, 15)  (  1,  6,  3)
  0   586.7      0  -1585.      0   3269.      0   5725.      0  0.1447E+05
   (  1,  6,  3)  (  1,  7,  3)  (  1,  6,  3)  (  1,  6,  3)  (  1,  3, 15)
  0  0.3838E+05  0 -0.1081E+06  0 -0.1750E+06  0  0.4365E+06  0 -0.1166E+07
   (  1,  6,  3)  (  1, 10, 12)  (  1, 10, 12)  (  1,  4,  2)  (  1,  6,  9)
  1  0.4934E+07  0 -0.2377E+07  0  0.9695E+06  0  0.4692E+06  0 -0.2322E+06
   (  1,  5, 17)  (  1,  4, 12)  (  1,  9,  6)  (  1,  6,  9)  (  1,  3,  9)
  0 -0.1178E+06  0 -0.5538E+05  0 -0.2458E+05  0 -0.1224E+05  0  -4310.    
   (  1,  3,  9)  (  1,  3,  6)  (  1,  3,  9)  (  1,  5,  5)  (  1,  5,  7)
  0  -1617.      0  -960.8      0  -413.7      0   143.3      0   66.77    
   (  1,  7, 12)  (  1,  4, 16)  (  1,  4,  8)  (  1,  7, 11)  (  1,  4, 17)
  0   17.62      0  -19.55      0  -49.41      0  -134.1      0  -389.3    
   (  1,  4, 17)  (  1, 10,  3)  (  1,  8,  9)  (  1,  8, 16)  (  1,  7,  4)
  0   986.8      0   1721.      0   3651.      0   9001.      0  0.1438E+05
   (  1,  2,  8)  (  1,  2,  5)  (  1,  9,  7)  (  1,  9,  7)  (  1,  9,  7)
  0 -0.2378E+05  0 -0.8847E+05  0  0.2157E+06  0 -0.4067E+06  0  0.1066E+07
   (  1, 10,  3)  (  1,  9,  7)  (  1,  2,  9)  (  1,  5,  1)  (  1, 10,  7)
  1  0.4890E+07  0  0.1995E+07  0  0.8700E+06  0  0.3659E+06  0 -0.1887E+06
   (  1,  6, 20)  (  1,  6, 20)  (  1,  6, 20)  (  1,  7,  3)  (  1,  4, 20)
  0 -0.8826E+05  0 -0.4524E+05  0 -0.2094E+05  0   8600.      0   4354.    
   (  1,  4, 20)  (  1,  6,  3)  (  1,  6,  3)  (  1, 10,  4)  (  1,  5, 16)
  0  -1488.      0   617.5      0  -240.4      0   128.9      0  -70.68    
   (  1,  4, 13)  (  1,  4, 15)  (  1,  9, 20)  (  1,  2,  9)  (  1,  4, 15)
  0  -30.92      0   24.90      0   31.84      0  -92.23      0   207.1    
   (  1,  6, 11)  (  1,  2,  8)  (  1,  3,  4)  (  1,  2,  3)  (  1,  2, 10)
  0   459.0      0   836.0      0   1804.      0  -5949.      0 -0.1523E+05
   (  1,  9, 19)  (  1,  4, 12)  (  1,  4,  7)  (  1,  6,  5)  (  1,  4, 18)
  0 -0.4348E+05  0 -0.6232E+05  0  0.1801E+06  0  0.3254E+06  0  0.9670E+06
   (  1,  5,  8)  (  1,  5,  8)  (  1, 10,  7)  (  1,  8, 15)  (  1,  9,  8)
  1 -0.6697E+07  0  0.2491E+07  0 -0.1029E+07  0 -0.4652E+06  0  0.1969E+06
   (  1,  8, 12)  (  1,  8, 11)  (  1,  8, 12)  (  1,  8, 12)  (  1,  9, 18)
  0  0.8744E+05  0 -0.3388E+05  0  0.1922E+05  0 -0.1065E+05  0  -4781.    
   (  1,  4,  7)  (  1,  9,  9)  (  1,  3, 15)  (  1,  2,  3)  (  1,  2,  3)
  0   1678.      0   909.2      0   406.7      0   191.5      0   81.39    
   (  1,  6, 16)  (  1,  9, 10)  (  1,  9, 10)  (  1,  8, 12)  (  1,  8, 12)
  0   18.90      0  -30.30      0  -94.03      0  -217.8      0   415.8    
   (  1, 10, 20)  (  1,  9, 10)  (  1,  8, 12)  (  1,  9, 10)  (  1,  4, 17)
  0  -1004.      0  -1956.      0  -2823.      0   6497.      0  0.1955E+05
   (  1,  2, 17)  (  1, 10,  2)  (  1, 10,  2)  (  1,  9, 10)  (  1,  9, 10)
  0 -0.4814E+05  0  0.8709E+05  0  0.2106E+06  0  0.5422E+06  0  0.1203E+07
   (  1,  4, 17)  (  1,  5, 14)  (  1,  3,  8)  (  1,  9,  3)  (  1,  8, 16)
  1  0.4277E+07  0 -0.2328E+07  0 -0.8222E+06  0 -0.5306E+06  0  0.1650E+06
   (  1, 10, 11)  (  1,  5, 20)  (  1,  5, 18)  (  1,  5, 18)  (  1,  3, 15)
  0 -0.8245E+05  0  0.3993E+05  0  0.2019E+05  0  0.1007E+05  0  -4755.    
   (  1,  4, 21)  (  1,  4,  5)  (  1,  2, 16)  (  1,  2,  4)  (  1,  8, 11)
  0   2002.      0   844.9      0  -376.2      0  -130.6      0  -37.50    
   (  1,  4, 14)  (  1,  8, 10)  (  1,  4, 15)  (  1,  9, 17)  (  1,  3, 18)
  0   21.61      0  -23.09      0   38.85      0   80.56      0  -321.6    
   (  1,  4, 18)  (  1,  3,  5)  (  1, 10,  9)  (  1,  5, 17)  (  1,  4, 15)
  0  -612.0      0   1347.      0  -2086.      0   5545.      0 -0.1460E+05
   (  1,  5, 20)  (  1,  6, 20)  (  1, 10,  9)  (  1, 10, 10)  (  1, 10,  9)
  0 -0.3495E+05  0  0.6176E+05  0 -0.1798E+06  0  0.4774E+06  0  0.8241E+06
   (  1,  6, 19)  (  1,  3, 15)  (  1,  8, 14)  (  1,  9,  9)  (  1,  6,  6)
  1 -0.6270E+07  0 -0.2774E+07  0  0.1070E+07  0  0.3364E+06  0 -0.1631E+06
   (  1,  4, 11)  (  1,  4, 11)  (  1,  4, 10)  (  1,  4, 10)  (  1,  1, 11)
  0  0.8342E+05  0  0.4182E+05  0 -0.1496E+05  0   8592.      0   3552.    
   (  1, 10,  3)  (  1, 10,  3)  (  1,  3,  9)  (  1,  6, 16)  (  1,  6, 16)
  0   1594.      0   729.4      0   319.9      0   137.0      0   44.04    
   (  1,  1, 12)  (  1,  1, 12)  (  1,  7,  9)  (  1,  7,  9)  (  1, 10, 11)
  0   18.11      0  -29.68      0  -66.47      0  -144.7      0   303.0    
   (  1,  8,  8)  (  1,  6,  8)  (  1,  3,  8)  (  1,  8,  8)  (  1,  8,  7)
  0   601.6      0   1451.      0  -2553.      0  -5677.      0  0.1176E+05
   (  1, 10,  6)  (  1,  3,  7)  (  1,  4,  7)  (  1, 10,  7)  (  1,  8, 16)
  0  0.2312E+05  0  0.6924E+05  0 -0.1403E+06  0  0.4258E+06  0 -0.8556E+06
   (  1,  4,  7)  (  1,  4, 18)  (  1,  4, 10)  (  1,  8,  3)  (  1,  3,  7)
  1 -0.4093E+07  0  0.1738E+07  0  0.7878E+06  0  0.3852E+06  0 -0.1813E+06
   (  1, 11, 10)  (  1, 11, 11)  (  1, 11, 11)  (  1, 11, 11)  (  1,  2, 19)
  0 -0.7792E+05  0 -0.3845E+05  0 -0.1726E+05  0   9039.      0   4198.    
   (  1,  9, 15)  (  1,  9, 15)  (  1,  4,  8)  (  1, 10, 12)  (  1, 10, 12)
  0   1694.      0   687.8      0   285.1      0   115.8      0   41.26    
   (  1, 10, 12)  (  1, 10, 12)  (  1, 10, 12)  (  1,  2, 18)  (  1,  6,  8)
  0  -23.65      0  -32.21      0  -59.24      0   146.1      0   339.6    
   (  1,  2, 18)  (  1,  3,  8)  (  1,  6,  8)  (  1,  6,  5)  (  1, 10, 17)
  0  -694.3      0   1344.      0   2830.      0  -7757.      0 -0.1845E+05
   (  1,  4,  7)  (  1,  9, 19)  (  1,  9, 19)  (  1,  6, 15)  (  1,  6, 15)
  0 -0.3214E+05  0  0.9621E+05  0 -0.2364E+06  0 -0.7796E+06  0 -0.1205E+07
   (  1,  6, 15)  (  1,  3, 18)  (  1,  6,  5)  (  1,  6,  5)  (  1,  6,  5)
[...]
   (  1,  3, 10)  (  1,  2, 17)  (  1, 11,  2)  (  1,  3,  3)  (  1, 10, 12)
  0 -0.5317E+05  0 -0.7947E+05  0 -0.1895E+06  0  0.5117E+06  0  0.9078E+06
   (  1, 10, 12)  (  1, 10, 12)  (  1,  5,  9)  (  1,  9,  3)  (  1,  2, 15)
  1  0.6144E+07  0  0.2175E+07  0  0.7851E+06  0 -0.3698E+06  0 -0.1516E+06
   (  1,  7, 14)  (  1,  7, 14)  (  1,  7, 14)  (  1,  6, 14)  (  1,  8, 12)
  0  0.7044E+05  0  0.3737E+05  0  0.1849E+05  0  0.1051E+05  0   5024.    
   (  1,  5,  8)  (  1,  8, 13)  (  1,  8, 13)  (  1,  8, 13)  (  1,  8, 13)
  0   1747.      0   851.1      0   374.2      0  -131.4      0  -54.01    
   (  1,  8, 13)  (  1, 10,  7)  (  1,  9,  2)  (  1,  4,  2)  (  1,  5,  5)
  0   24.39      0  -33.76      0   51.07      0   85.77      0   400.0    
   (  1,  4,  5)  (  1,  4, 15)  (  1,  5,  7)  (  1,  2,  5)  (  1,  5,  8)
  0  -612.3      0   2101.      0   3833.      0  -6874.      0  0.2136E+05
   (  1,  3,  5)  (  1,  7, 12)  (  1,  7, 12)  (  1,  5,  5)  (  1,  5, 16)
  0 -0.3676E+05  0  0.1017E+06  0 -0.2367E+06  0 -0.7105E+06  0 -0.1439E+07
   (  1,  4,  4)  (  1,  4,  5)  (  1,  4, 11)  (  1,  6, 10)  (  1,  6, 10)
  1  0.8082E+07  0  0.3295E+07  0  0.1301E+07  0 -0.6652E+06  0  0.2955E+06
   (  1, 11, 11)  (  1, 11, 11)  (  1, 11, 11)  (  1,  3, 17)  (  1,  8,  6)
  0  0.1042E+06  0 -0.6048E+05  0 -0.3640E+05  0  0.1212E+05  0  -5394.    
   (  1, 11, 11)  (  1,  4,  2)  (  1,  4,  2)  (  1,  9,  4)  (  1,  3, 12)
  0  -1947.      0   860.8      0   434.0      0   165.8      0   85.60    
   (  1, 10, 13)  (  1,  4, 15)  (  1,  9,  2)  (  1,  8,  5)  (  1,  4,  7)
  0  -32.37      0  -21.89      0  -29.82      0   61.27      0   201.3    
   (  1, 10,  6)  (  1,  8,  5)  (  1, 10,  4)  (  1,  3, 18)  (  1,  9,  2)
  0   582.3      0   1291.      0   2093.      0   4454.      0  0.1236E+05
   (  1,  8,  5)  (  1,  8,  5)  (  1,  8,  5)  (  1,  7,  6)  (  1,  7,  6)
  0  0.2356E+05  0  0.5604E+05  0  0.1697E+06  0 -0.3625E+06  0 -0.8596E+06
   (  1,  7,  6)  (  1,  7,  6)  (  1,  7,  6)  (  1,  6,  6)  (  1,  6,  6)
  1  0.6833E+07  0  0.2504E+07  0  0.1166E+07  0  0.5159E+06  0  0.1898E+06
   (  1,  6, 21)  (  1,  6, 21)  (  1,  6, 21)  (  1,  6, 21)  (  1,  6, 21)
  0 -0.8258E+05  0  0.4505E+05  0  0.2161E+05  0   9284.      0   4474.    
   (  1,  8, 20)  (  1,  3, 12)  (  1,  3, 12)  (  1,  3, 12)  (  1,  3, 12)
  0   2045.      0   838.5      0  -415.0      0   118.2      0   68.62    
   (  1,  7, 20)  (  1,  3,  9)  (  1,  3, 11)  (  1,  7,  3)  (  1,  3, 14)
  0   22.17      0  -24.59      0  -58.88      0   152.9      0  -361.7    
   (  1,  4,  8)  (  1,  9, 18)  (  1,  3, 20)  (  1,  9, 19)  (  1,  5, 20)
  0  -1048.      0  -1935.      0  -4102.      0 -0.1069E+05  0 -0.2482E+05
   (  1,  6,  4)  (  1,  6,  4)  (  1,  5,  3)  (  1,  6,  4)  (  1,  4,  6)
  0  0.5495E+05  0 -0.1178E+06  0  0.3473E+06  0  0.5950E+06  0  0.1674E+07
   (  1,  2, 15)  (  1,  2, 16)  (  1,  4,  5)  (  1,  2, 13)  (  1,  3,  6)
  1 -0.7306E+07  0 -0.3617E+07  0 -0.1359E+07  0 -0.4449E+06  0  0.1541E+06
   (  1,  6,  3)  (  1,  6,  3)  (  1,  6,  3)  (  1,  6,  3)  (  1,  5,  3)
  0 -0.7678E+05  0  0.3635E+05  0  0.2263E+05  0   9829.      0  -4786.    
   (  1,  3,  9)  (  1,  6,  2)  (  1,  3,  8)  (  1,  5,  7)  (  1,  2, 16)
  0  -2115.      0   961.4      0  -540.4      0  -202.1      0   107.0    
   (  1,  2, 20)  (  1,  2,  5)  (  1,  3,  8)  (  1,  7,  3)  (  1,  3,  9)
  0  -47.14      0  -21.43      0  -32.39      0   80.44      0   212.5    
   (  1,  3, 11)  (  1,  2, 16)  (  1,  3,  4)  (  1,  3, 11)  (  1,  3, 11)
  0   463.9      0  -750.3      0  -1941.      0   4784.      0 -0.1222E+05
   (  1,  6,  2)  (  1,  4,  3)  (  1,  5, 15)  (  1,  9,  8)  (  1,  7,  3)
  0 -0.3668E+05  0 -0.9490E+05  0 -0.1864E+06  0  0.5315E+06  0 -0.9688E+06
   (  1,  1, 17)  (  1,  4, 12)  (  1,  4, 12)  (  1,  4,  8)  (  1,  1,  8)
  1  0.4217E+07  0  0.1595E+07  0  0.8305E+06  0  0.3629E+06  0  0.1709E+06
   (  1,  5,  3)  (  1,  5,  3)  (  1,  5,  3)  (  1, 10,  9)  (  1, 10,  9)
  0  0.8494E+05  0 -0.5236E+05  0 -0.1937E+05  0  0.1025E+05  0   3838.    
   (  1, 10,  9)  (  1,  3,  4)  (  1,  3,  9)  (  1,  9,  8)  (  1,  6,  2)
  0  -1385.      0  -725.4      0  -323.1      0  -122.6      0   56.37    
   (  1,  9,  6)  (  1,  7,  2)  (  1,  4, 12)  (  1, 10, 14)  (  1, 10,  8)
  0   24.56      0  -21.19      0  -42.18      0  -137.6      0  -195.0    
   (  1,  2,  4)  (  1,  2,  2)  (  1,  3, 15)  (  1,  4,  8)  (  1, 10, 14)
  0  -529.4      0  -1797.      0  -3045.      0  -6154.      0 -0.1790E+05
   (  1,  3,  9)  (  1,  4, 12)  (  1,  4, 12)  (  1,  4, 12)  (  1,  4, 12)
  0 -0.3226E+05  0  0.6328E+05  0 -0.2190E+06  0  0.6126E+06  0 -0.1627E+07
   (  1,  4, 12)  (  1,  8, 11)  (  1,  3,  6)  (  1,  3,  9)  (  1,  3, 10)
  1 -0.6199E+07  0 -0.2606E+07  0 -0.1347E+07  0 -0.4609E+06  0  0.1780E+06
   (  1,  9, 11)  (  1,  9, 11)  (  1,  9, 11)  (  1,  3,  8)  (  1,  3,  2)
  0  0.8303E+05  0  0.3679E+05  0 -0.1980E+05  0  -7095.      0   4082.    
   (  1,  3,  2)  (  1,  3,  2)  (  1,  3,  8)  (  1,  3,  3)  (  1,  4,  4)
  0  -1916.      0  -765.6      0  -306.3      0   104.4      0   51.67    
   (  1,  8, 12)  (  1,  8, 12)  (  1,  8, 12)  (  1,  8, 13)  (  1,  2,  7)
  0  -23.47      0  -19.62      0   51.67      0  -139.3      0   323.4    
   (  1,  2,  2)  (  1,  1,  4)  (  1,  9, 10)  (  1,  9,  9)  (  1,  5, 15)
  0   604.0      0  -1834.      0  -2979.      0  -6724.      0 -0.1733E+05
   (  1,  3,  5)  (  1,  4,  4)  (  1,  4,  4)  (  1,  5,  2)  (  1,  5,  2)
  0 -0.2533E+05  0 -0.6265E+05  0  0.2012E+06  0 -0.4825E+06  0 -0.1291E+07
   (  1,  4,  9)  (  1,  2,  6)  (  1, 10,  8)  (  1,  6, 14)  (  1,  4,  6)
  1 -0.5676E+07  0 -0.2488E+07  0 -0.1101E+07  0  0.4368E+06  0  0.1824E+06
   (  1,  6,  6)  (  1,  6,  6)  (  1,  6,  6)  (  1,  2,  8)  (  1,  4, 16)
  0  0.1127E+06  0  0.5385E+05  0  0.2701E+05  0 -0.1068E+05  0  -4214.    
   (  1,  3, 18)  (  1,  3,  3)  (  1,  3,  3)  (  1,  4, 15)  (  1,  7,  5)
  0  -2170.      0   720.5      0  -550.6      0  -214.3      0   80.20    
   (  1,  6, 11)  (  1,  4,  8)  (  1,  3,  3)  (  1,  3,  3)  (  1,  7,  5)
  0   43.09      0   21.43      0   31.99      0   83.58      0   174.6    
   (  1,  7,  5)  (  1,  2,  7)  (  1,  4,  9)  (  1,  3, 20)  (  1,  6,  5)
  0  -467.7      0   889.9      0   1900.      0   4639.      0  0.1199E+05
   (  1,  5,  2)  (  1,  3, 10)  (  1,  3, 10)  (  1, 10, 19)  (  1,  4, 16)
  0 -0.3706E+05  0 -0.6128E+05  0 -0.1481E+06  0 -0.2997E+06  0 -0.5658E+06
   (  1,  5, 19)  (  1,  2, 19)  (  1, 10, 15)  (  1,  6,  5)  (  1,  6,  5)
  1  0.3952E+07  0 -0.1774E+07  0 -0.8598E+06  0 -0.3938E+06  0 -0.1306E+06
   (  1,  5, 16)  (  1, 10, 11)  (  1,  6,  5)  (  1,  6,  5)  (  1,  6,  5)
  0  0.6202E+05  0 -0.3308E+05  0 -0.1320E+05  0   6360.      0   2384.    
   (  1,  3, 18)  (  1,  5, 15)  (  1,  2, 18)  (  1,  9, 11)  (  1,  9, 11)
  0   1157.      0   442.6      0  -182.5      0  -111.0      0   44.56    
   (  1,  7, 17)  (  1,  7, 17)  (  1,  6, 18)  (  1,  5, 14)  (  1,  2,  8)
  0   23.23      0  -33.81      0  -53.65      0   154.8      0  -293.0    
   (  1, 10, 18)  (  1,  2,  8)  (  1,  8, 16)  (  1,  2,  7)  (  1,  4, 16)
  0  -508.8      0   1356.      0   3714.      0  0.1016E+05  0  0.2718E+05
   (  1,  4, 16)  (  1,  2,  8)  (  1,  3,  6)  (  1,  8, 16)  (  1,  8, 16)
  0  0.7523E+05  0 -0.1323E+06  0  0.2259E+06  0 -0.6640E+06  0 -0.1695E+07
   (  1,  4,  5)  (  1,  4, 21)  (  1,  9, 15)  (  1,  4, 12)  (  1,  8,  7)
  1  0.4692E+07  0  0.1958E+07  0  0.1002E+07  0  0.4836E+06  0  0.2042E+06
   (  1,  6,  6)  (  1,  6,  6)  (  1,  6,  6)  (  1,  2,  7)  (  1,  6,  6)
  0  0.8225E+05  0  0.4385E+05  0  0.2030E+05  0  -8339.      0  -3839.    
   (  1,  6,  6)  (  1,  6,  6)  (  1,  3,  6)  (  1,  3,  8)  (  1,  3,  8)
  0   1852.      0  -695.4      0  -360.0      0   209.1      0  -62.17    
   (  1,  5,  2)  (  1,  5, 13)  (  1,  9,  6)  (  1,  5, 12)  (  1,  5, 11)
  0  -25.88      0  -23.57      0   38.32      0  -99.08      0  -181.6    
   (  1,  6,  6)  (  1,  6,  9)  (  1,  7, 10)  (  1,  3,  8)  (  1,  4,  9)
  0  -514.8      0   1358.      0  -2201.      0   4682.      0 -0.1348E+05
   (  1, 10,  6)  (  1,  4,  6)  (  1,  9, 15)  (  1,  3,  2)  (  1,  5, 14)
  0  0.4818E+05  0 -0.9556E+05  0 -0.1550E+06  0 -0.4572E+06  0  0.9765E+06
   (  1,  5,  4)  (  1,  4, 12)  (  1,  4, 12)  (  1,  4, 12)  (  1,  4, 17)
  1 -0.4545E+07  0 -0.2163E+07  0 -0.1007E+07  0 -0.4417E+06  0 -0.1986E+06
   (  1,  6,  5)  (  1,  6,  5)  (  1,  6,  5)  (  1,  6,  5)  (  1,  6,  5)
  0 -0.9029E+05  0 -0.3916E+05  0 -0.1514E+05  0   6271.      0   2853.    
   (  1,  6,  5)  (  1,  6, 12)  (  1,  6, 12)  (  1,  5, 12)  (  1,  9,  3)
  0  -1606.      0  -675.4      0  -285.9      0  -141.4      0  -51.81    
   (  1,  7, 20)  (  1,  7, 20)  (  1,  7, 20)  (  1,  7, 20)  (  1,  8,  7)
  0   19.51      0   29.50      0  -75.01      0   133.5      0   310.0    
   (  1,  9,  4)  (  1,  7, 20)  (  1,  8, 12)  (  1,  5, 10)  (  1,  8, 19)
  0  -583.1      0  -1089.      0  -3095.      0  -9125.      0  0.1643E+05
   (  1, 10,  6)  (  1,  7, 20)  (  1,  8, 18)  (  1,  8, 18)  (  1,  8, 12)
  0 -0.4028E+05  0  0.9815E+05  0 -0.2276E+06  0  0.5031E+06  0  0.1359E+07
   (  1,  9,  2)  (  1,  2,  8)  (  1,  9,  2)  (  1,  4, 20)  (  1,  1,  9)
  1  0.3806E+07  0  0.1676E+07  0 -0.8265E+06  0 -0.3919E+06  0 -0.1612E+06
   (  1,  2, 11)  (  1,  6, 21)  (  1,  8, 10)  (  1,  8, 10)  (  1,  5, 13)
  0  0.6867E+05  0 -0.3659E+05  0 -0.1797E+05  0  -9992.      0   4173.    
   (  1,  5, 20)  (  1,  9,  9)  (  1,  9,  9)  (  1,  9,  9)  (  1,  7, 20)
  0   1836.      0   745.5      0  -325.6      0   119.6      0   62.06    
   (  1,  7, 20)  (  1,  7, 20)  (  1,  5,  8)  (  1,  4, 16)  (  1,  6, 13)
  0   19.02      0   28.24      0   44.47      0   113.5      0  -236.2    
   (  1,  7, 11)  (  1,  5, 16)  (  1, 10, 14)  (  1,  3,  8)  (  1,  3,  9)
  0  -623.5      0   1742.      0   2342.      0   6076.      0  0.1999E+05
   (  1,  4,  9)  (  1, 10, 15)  (  1, 10, 15)  (  1,  8,  9)  (  1,  4, 16)
  0  0.5686E+05  0 -0.8517E+05  0 -0.1734E+06  0 -0.5718E+06  0 -0.9590E+06
   (  1,  9, 16)  (  1,  5, 19)  (  1,  6, 10)  (  1,  6, 15)  (  1,  3, 10)
  1 -0.4806E+07  0  0.2332E+07  0  0.9247E+06  0  0.4417E+06  0  0.2100E+06
   (  1,  6,  7)  (  1,  8, 10)  (  1,  8, 10)  (  1,  4,  6)  (  1,  4,  6)
  0  0.8754E+05  0  0.4381E+05  0  0.1741E+05  0   8700.      0  -4134.    
   (  1,  9, 16)  (  1,  6,  8)  (  1,  3, 10)  (  1,  5,  9)  (  1,  5,  8)
  0  -1540.      0   950.8      0  -271.4      0  -138.7      0   54.26    
   (  1,  5,  8)  (  1,  5, 18)  (  1, 10,  2)  (  1,  4, 18)  (  1, 10,  3)
  0  -25.62      0  -34.93      0  -66.03      0   178.2      0   288.5    
   (  1,  4, 17)  (  1, 10,  3)  (  1,  1,  9)  (  1,  4, 18)  (  1,  9,  9)
  0  -692.9      0  -943.0      0   2402.      0  -5992.      0  0.1042E+05
   (  1,  8,  7)  (  1, 11,  6)  (  1,  1,  9)  (  1, 10,  7)  (  1,  2, 15)
  0  0.2478E+05  0  0.7429E+05  0 -0.1830E+06  0  0.5256E+06  0 -0.1313E+07
   (  1,  2, 15)  (  1,  8,  9)  (  1,  8, 10)  (  1,  5,  8)  (  1,  8, 10)
  1 -0.9902E+07  0 -0.3519E+07  0 -0.1104E+07  0 -0.5204E+06  0  0.2243E+06
   (  1,  8, 12)  (  1,  8, 12)  (  1,  8, 12)  (  1,  8, 12)  (  1,  4,  8)
  0 -0.7498E+05  0  0.4841E+05  0  0.2284E+05  0  -7168.      0   2828.    
   (  1, 11,  8)  (  1,  8,  7)  (  1,  8,  7)  (  1,  4,  8)  (  1, 10, 13)
  0  -1356.      0  -658.8      0   239.9      0   126.4      0  -41.54    
   (  1,  4, 17)  (  1,  4,  8)  (  1,  8, 12)  (  1,  4,  8)  (  1,  9,  8)
  0  -27.90      0  -22.06      0  -41.43      0  -108.8      0   271.9    
   (  1,  5,  8)  (  1,  3,  3)  (  1, 10,  9)  (  1,  4, 17)  (  1,  3, 15)
  0  -567.1      0  -1108.      0  -2172.      0   6094.      0 -0.1602E+05
   (  1,  5, 10)  (  1,  6, 14)  (  1,  9, 15)  (  1,  5, 14)  (  1,  8, 11)
  0 -0.3721E+05  0  0.5510E+05  0  0.1646E+06  0 -0.3656E+06  0 -0.7557E+06
   (  1,  8, 11)  (  1,  8, 12)  (  1,  6,  9)  (  1,  8, 11)  (  1,  5, 18)
  1 -0.4122E+07  0 -0.1565E+07  0 -0.8132E+06  0 -0.3655E+06  0 -0.1654E+06
   (  1,  6, 17)  (  1,  6, 17)  (  1,  8, 12)  (  1,  4,  8)  (  1,  4,  8)
  0  0.6913E+05  0 -0.3413E+05  0 -0.1789E+05  0  -6138.      0  -3813.    
   (  1,  4,  7)  (  1, 10,  2)  (  1,  5, 20)  (  1,  6, 14)  (  1,  9, 11)
  0   1536.      0   696.7      0  -276.6      0   127.2      0  -50.47    
   (  1,  6, 16)  (  1,  6, 16)  (  1,  6, 19)  (  1,  6,  7)  (  1,  5, 17)
  0  -18.78      0  -28.33      0   74.70      0  -155.7      0   538.6    
   (  1,  4,  9)  (  1,  6,  7)  (  1,  6, 19)  (  1,  4, 10)  (  1,  4, 17)
  0   1195.      0  -4016.      0  -6187.      0  -9463.      0 -0.2531E+05
   (  1,  3, 20)  (  1,  5,  8)  (  1,  3,  9)  (  1,  3,  2)  (  1,  4,  9)
  0 -0.4819E+05  0 -0.8146E+05  0 -0.1979E+06  0  0.4620E+06  0  0.8938E+06
   (  1,  4, 17)  (  1,  6, 19)  (  1,  8,  9)  (  1,  8, 16)  (  1,  8,  5)
  1 -0.4572E+07  0 -0.2023E+07  0  0.8233E+06  0  0.3849E+06  0  0.1636E+06
   (  1,  6,  8)  (  1,  6,  8)  (  1,  3, 12)  (  1,  9, 20)  (  1,  9, 20)
  0 -0.8456E+05  0 -0.4748E+05  0 -0.2480E+05  0 -0.1027E+05  0   4423.    
   (  1, 10, 20)  (  1, 10, 20)  (  1,  3,  6)  (  1,  3,  6)  (  1,  5,  4)
  0  -1678.      0  -790.9      0  -515.2      0  -186.3      0   92.11    
   (  1,  4,  2)  (  1,  4,  3)  (  1,  3, 19)  (  1, 10, 19)  (  1,  4,  3)
  0   33.65      0   20.68      0   30.33      0   96.60      0  -248.2    
   (  1, 10, 20)  (  1,  6, 12)  (  1,  4, 15)  (  1,  4,  4)  (  1,  8, 20)
  0   516.4      0  -845.2      0   2625.      0   6561.      0 -0.1806E+05
   (  1,  4, 20)  (  1,  8, 17)  (  1,  5, 17)  (  1,  5, 17)  (  1,  6, 17)
  0 -0.4414E+05  0 -0.6708E+05  0 -0.1739E+06  0 -0.3416E+06  0 -0.8166E+06
   (  1,  6, 17)  (  1,  9, 16)  (  1,  6, 10)  (  1,  6, 10)  (  1,  4, 16)
  1  0.3895E+07  0  0.2160E+07  0  0.9700E+06  0  0.3441E+06  0 -0.1392E+06
   (  1,  6, 14)  (  1,  6, 14)  (  1,  6, 14)  (  1,  5,  2)  (  1,  5, 14)
  0 -0.5638E+05  0 -0.3010E+05  0 -0.1441E+05  0   7196.      0   3822.    
   (  1,  8, 17)  (  1,  6,  2)  (  1,  6,  2)  (  1, 10,  9)  (  1,  8, 18)
  0   2004.      0  -766.9      0   280.2      0   111.7      0  -53.08    
   (  1,  5, 15)  (  1,  6,  2)  (  1,  3, 19)  (  1,  4, 16)  (  1,  7, 20)
  0   21.19      0   25.32      0   74.03      0   231.6      0  -497.4    
   (  1,  2, 14)  (  1,  2, 19)  (  1,  7, 20)  (  1,  7, 20)  (  1,  5, 20)
  0   1239.      0   2479.      0   5260.      0 -0.1013E+05  0 -0.1805E+05
   (  1,  6, 19)  (  1,  2,  9)  (  1,  2,  9)  (  1,  4, 15)  (  1,  4, 18)
  0 -0.3946E+05  0 -0.6666E+05  0 -0.2311E+06  0 -0.4936E+06  0  0.1226E+07
   (  1,  9,  3)  (  1,  9,  3)  (  1,  3, 19)  (  1,  3, 19)  (  1,  2, 15)
  1  0.4474E+07  0 -0.2194E+07  0 -0.9649E+06  0  0.3913E+06  0  0.2046E+06
   (  1,  2,  9)  (  1,  5, 16)  (  1,  5, 16)  (  1,  4, 18)  (  1,  5,  7)
  0  0.1050E+06  0 -0.3978E+05  0 -0.1891E+05  0  -8798.      0  -3193.    
   (  1,  3,  8)  (  1,  4,  2)  (  1,  4,  2)  (  1,  4,  8)  (  1,  9,  4)
  0   1555.      0  -720.2      0   319.2      0  -180.0      0   72.63    
   (  1,  5,  8)  (  1,  3, 20)  (  1,  4, 20)  (  1,  5,  7)  (  1,  4,  8)
  0   37.32      0   18.57      0  -26.65      0   88.93      0  -203.1    
   (  1,  5,  1)  (  1,  5, 20)  (  1,  5,  4)  (  1,  2,  3)  (  1, 10, 19)
  0   713.8      0   999.3      0  -2188.      0  -6225.      0  0.1754E+05
   (  1,  5, 18)  (  1,  5, 18)  (  1,  6, 18)  (  1,  5,  7)  (  1,  9,  2)
  0  0.2744E+05  0 -0.5563E+05  0 -0.2067E+06  0 -0.4441E+06  0  0.1389E+07
   (  1,  9,  2)  (  1,  4, 15)  (  1,  2,  2)  (  1,  5, 14)  (  1,  6, 14)
  1 -0.6517E+07  0 -0.3215E+07  0  0.1225E+07  0  0.5027E+06  0  0.2112E+06
   (  1,  3, 11)  (  1,  3, 11)  (  1,  3, 10)  (  1,  3, 10)  (  1, 11, 10)
  0 -0.1180E+06  0 -0.4795E+05  0 -0.2733E+05  0  0.1140E+05  0   5309.    
   (  1,  9,  4)  (  1,  4, 10)  (  1,  4, 10)  (  1,  9, 12)  (  1,  5, 15)
  0  -3194.      0   849.8      0   450.9      0   166.9      0   70.30    
   (  1,  4, 10)  (  1,  9, 12)  (  1,  8, 18)  (  1,  8, 18)  (  1,  4,  9)
  0   25.20      0  -20.84      0   43.64      0  -108.6      0  -278.4    
   (  1,  4,  6)  (  1,  4,  9)  (  1,  4,  8)  (  1,  9, 17)  (  1,  9, 17)
  0   502.8      0  -669.8      0   1641.      0   4887.      0   9641.    
   (  1,  5,  5)  (  1, 10,  7)  (  1,  2, 20)  (  1,  3,  8)  (  1,  4,  9)
  0  0.1971E+05  0 -0.5538E+05  0 -0.1689E+06  0 -0.3929E+06  0 -0.1404E+07
   (  1,  4,  9)  (  1,  8, 11)  (  1,  8, 11)  (  1,  8, 11)  (  1,  8, 11)
  1  0.5650E+07  0  0.2263E+07  0  0.1025E+07  0  0.3222E+06  0 -0.1575E+06
   (  1,  6, 14)  (  1,  6, 14)  (  1,  6, 14)  (  1,  6, 14)  (  1,  5, 11)
  0 -0.6625E+05  0 -0.3830E+05  0 -0.1541E+05  0  -7115.      0  -4237.    
   (  1,  5, 11)  (  1,  4, 15)  (  1,  5, 16)  (  1,  5, 16)  (  1,  3, 16)
  0  -1335.      0  -514.8      0  -198.7      0  -105.7      0   46.43    
   (  1,  4, 20)  (  1,  9, 10)  (  1,  8, 13)  (  1,  8, 13)  (  1,  2,  4)
  0  -28.03      0  -29.81      0   55.63      0   158.9      0   268.6    
   (  1,  5,  8)  (  1,  1, 16)  (  1,  5, 12)  (  1,  4, 16)  (  1,  5, 20)
  0   718.1      0  -2122.      0  -5219.      0  0.1157E+05  0  0.2411E+05
   (  1,  2, 14)  (  1,  4, 17)  (  1,  5,  8)  (  1,  8, 12)  (  1,  8, 12)
  0  0.5657E+05  0  0.1689E+06  0  0.2999E+06  0  0.5520E+06  0 -0.1342E+07
   (  1,  8, 12)  (  1,  8, 12)  (  1,  8, 12)  (  1,  8, 12)  (  1,  2,  3)



 OUTPUT CONTROL FOR STRESS PERIOD    1   TIME STEP    1
    SAVE HEAD FOR ALL LAYERS
    SAVE BUDGET

         ****FAILED TO MEET SOLVER CONVERGENCE CRITERIA IN TIME STEP    1 OF STRESS PERIOD    1****

 HEAD WILL BE SAVED ON UNIT   51 AT END OF TIME STEP    1, STRESS PERIOD    1
1
  VOLUMETRIC BUDGET FOR ENTIRE MODEL AT END OF TIME STEP    1, STRESS PERIOD   1
  ------------------------------------------------------------------------------

     CUMULATIVE VOLUMES      L**3       RATES FOR THIS TIME STEP      L**3/T
     ------------------                 ------------------------

           IN:                                      IN:
           ---                                      ---
             STORAGE =           0.0000               STORAGE =           0.0000
       CONSTANT HEAD =           0.0000         CONSTANT HEAD =           0.0000
               WELLS =           0.0000                 WELLS =           0.0000

            TOTAL IN =           0.0000              TOTAL IN =           0.0000

          OUT:                                     OUT:
          ----                                     ----
             STORAGE =           0.0000               STORAGE =           0.0000
       CONSTANT HEAD =           0.0000         CONSTANT HEAD =           0.0000
               WELLS =         100.0000                 WELLS =         100.0000

           TOTAL OUT =         100.0000             TOTAL OUT =         100.0000

            IN - OUT =        -100.0000              IN - OUT =        -100.0000

 PERCENT DISCREPANCY =        -200.00     PERCENT DISCREPANCY =        -200.00






         TIME SUMMARY AT END OF TIME STEP    1 IN STRESS PERIOD    1
                    SECONDS     MINUTES      HOURS       DAYS        YEARS
                    -----------------------------------------------------------
   TIME STEP LENGTH  86400.      1440.0      24.000      1.0000     2.73785E-03
 STRESS PERIOD TIME  86400.      1440.0      24.000      1.0000     2.73785E-03
         TOTAL TIME  86400.      1440.0      24.000      1.0000     2.73785E-03
1
 FAILURE TO MEET SOLVER CONVERGENCE CRITERIA
 BUDGET PERCENT DISCREPANCY IS -200.0000
 STOPPING SIMULATION

 Run end date and time (yyyy/mm/dd hh:mm:ss): 2025/08/08 18:27:41
 Elapsed run time:  0.009 Seconds

