                                  MODFLOW-2005     
      U.S. GEOLOGICAL SURVEY MODULAR FINITE-DIFFERENCE GROUND-WATER FLOW MODEL
                            VERSION 1.12.00 2/3/2017

 LIST FILE: dis_demo.list
                         UNIT    2

 OPENING dis_demo.dis
 FILE TYPE:DIS   UNIT   11   STATUS:OLD    
 FORMAT:FORMATTED              ACCESS:SEQUENTIAL          

 OPENING dis_demo.bas
 FILE TYPE:BAS6   UNIT   13   STATUS:OLD    
 FORMAT:FORMATTED              ACCESS:SEQUENTIAL          

 OPENING dis_demo.lpf
 FILE TYPE:LPF   UNIT   15   STATUS:OLD    
 FORMAT:FORMATTED              ACCESS:SEQUENTIAL          

 OPENING dis_demo.chd
 FILE TYPE:CHD   UNIT   24   STATUS:OLD    
 FORMAT:FORMATTED              ACCESS:SEQUENTIAL          

 OPENING dis_demo.oc
 FILE TYPE:OC   UNIT   14   STATUS:OLD    
 FORMAT:FORMATTED              ACCESS:SEQUENTIAL          

 OPENING dis_demo.pcg
 FILE TYPE:PCG   UNIT   27   STATUS:OLD    
 FORMAT:FORMATTED              ACCESS:SEQUENTIAL          

 OPENING dis_demo.hds
 FILE TYPE:DATA(BINARY)   UNIT   51   STATUS:REPLACE
 FORMAT:UNFORMATTED            ACCESS:STREAM              

 BAS -- BASIC PACKAGE, VERSION 7, 5/2/2005 INPUT READ FROM UNIT   13
 
 MODFLOW was compiled using mixed precision
 Precision of REAL variables:           6
 Precision of DOUBLE PRECISION variables:          15

 DISCRETIZATION INPUT DATA READ FROM UNIT   11
 # DIS package for MODFLOW-2005 generated by Flopy 3.9.3
    3 LAYERS        93 ROWS        52 COLUMNS
    1 STRESS PERIOD(S) IN SIMULATION
 MODEL TIME UNIT IS SECONDS
 MODEL LENGTH UNIT IS FEET
  Confining bed flag for each layer:
   0   0   0

                     DELR =   640.000    

                     DELC =   640.000    

 TOP ELEVATION OF LAYER 1 =   100.000    

   MODEL LAYER BOTTOM EL. =   80.0000     FOR LAYER   1

   MODEL LAYER BOTTOM EL. =   60.0000     FOR LAYER   2

   MODEL LAYER BOTTOM EL. =   40.0000     FOR LAYER   3


 STRESS PERIOD     LENGTH       TIME STEPS     MULTIPLIER FOR DELT    SS FLAG
 ----------------------------------------------------------------------------
        1         1.000000          1                    1.000         SS

 STEADY-STATE SIMULATION



 
 # BAS6 package for MODFLOW-2005 generated by Flopy 3.9.3                        
 THE FREE FORMAT OPTION HAS BEEN SELECTED

           BOUNDARY ARRAY =              1 FOR LAYER   1

           BOUNDARY ARRAY =              1 FOR LAYER   2

           BOUNDARY ARRAY =              1 FOR LAYER   3

 AQUIFER HEAD WILL BE SET TO  -999.99     AT ALL NO-FLOW NODES (IBOUND=0).

             INITIAL HEAD =   1.00000     FOR LAYER   1

             INITIAL HEAD =   1.00000     FOR LAYER   2

             INITIAL HEAD =   1.00000     FOR LAYER   3
 # OC package for MODFLOW-2005 generated by Flopy 3.9.3

 OUTPUT CONTROL IS SPECIFIED ONLY AT TIME STEPS FOR WHICH OUTPUT IS DESIRED
 COMPACT CELL-BY-CELL BUDGET FILES WILL BE WRITTEN
 AUXILIARY DATA WILL BE SAVED IN CELL-BY-CELL BUDGET FILES
 HEAD PRINT FORMAT CODE IS   0    DRAWDOWN PRINT FORMAT CODE IS   0
 HEADS WILL BE SAVED ON UNIT   51    DRAWDOWNS WILL BE SAVED ON UNIT    0

 LPF -- LAYER-PROPERTY FLOW PACKAGE, VERSION 7, 5/2/2005
         INPUT READ FROM UNIT   15
 # LPF package for MODFLOW-2005 generated by Flopy 3.9.3
 HEAD AT CELLS THAT CONVERT TO DRY= -1.00000E+30
 No named parameters

   LAYER FLAGS:
 LAYER       LAYTYP        LAYAVG         CHANI        LAYVKA        LAYWET
 ---------------------------------------------------------------------------
    1             0             0     1.000E+00             0             0
    2             0             0     1.000E+00             0             0
    3             0             0     1.000E+00             0             0

   INTERPRETATION OF LAYER FLAGS:
                        INTERBLOCK     HORIZONTAL    DATA IN
         LAYER TYPE   TRANSMISSIVITY   ANISOTROPY   ARRAY VKA   WETTABILITY
 LAYER      (LAYTYP)      (LAYAVG)       (CHANI)      (LAYVKA)      (LAYWET)
 ---------------------------------------------------------------------------
    1      CONFINED      HARMONIC     1.000E+00    VERTICAL K  NON-WETTABLE
    2      CONFINED      HARMONIC     1.000E+00    VERTICAL K  NON-WETTABLE
    3      CONFINED      HARMONIC     1.000E+00    VERTICAL K  NON-WETTABLE

 WETTING CAPABILITY IS NOT ACTIVE IN ANY LAYER

    HYD. COND. ALONG ROWS =   10.0000     FOR LAYER   1

      VERTICAL HYD. COND. =   10.0000     FOR LAYER   1

    HYD. COND. ALONG ROWS =   10.0000     FOR LAYER   2

      VERTICAL HYD. COND. =   10.0000     FOR LAYER   2

    HYD. COND. ALONG ROWS =   10.0000     FOR LAYER   3

      VERTICAL HYD. COND. =   10.0000     FOR LAYER   3

 CHD -- TIME-VARIANT SPECIFIED-HEAD OPTION, VERSION 7, 5/2/2005
 INPUT READ FROM UNIT   24
 # CHD package for MODFLOW-2005 generated by Flopy 3.9.3
 No named parameters
 MAXIMUM OF    186 TIME-VARIANT SPECIFIED-HEAD CELLS AT ONE TIME


     0 TIME-VARIANT SPECIFIED-HEAD PARAMETERS

 PCG -- CONJUGATE-GRADIENT SOLUTION PACKAGE, VERSION 7, 5/2/2005
 # PCG package for MODFLOW-2005 generated by Flopy 3.9.3
 MAXIMUM OF     50 CALLS OF SOLUTION ROUTINE
 MAXIMUM OF     30 INTERNAL ITERATIONS PER CALL TO SOLUTION ROUTINE
 MATRIX PRECONDITIONING TYPE :    1



                                    SOLUTION BY THE CONJUGATE-GRADIENT METHOD
                                   -------------------------------------------
                    MAXIMUM NUMBER OF CALLS TO PCG ROUTINE =       50
                        MAXIMUM ITERATIONS PER CALL TO PCG =       30
                               MATRIX PRECONDITIONING TYPE =        1
        RELAXATION FACTOR (ONLY USED WITH PRECOND. TYPE 1) =    0.10000E+01
 PARAMETER OF POLYNOMIAL PRECOND. = 2 (2) OR IS CALCULATED :        0
                         HEAD CHANGE CRITERION FOR CLOSURE =    0.10000E-04
                     RESIDUAL CHANGE CRITERION FOR CLOSURE =    0.10000E-04
            PCG HEAD AND RESIDUAL CHANGE PRINTOUT INTERVAL =      999
     PRINTING FROM SOLVER IS LIMITED(1) OR SUPPRESSED (>1) =        3
                            STEADY-STATE DAMPING PARAMETER =    0.10000E+01
                               TRANSIENT DAMPING PARAMETER =    0.10000E+01
1
                            STRESS PERIOD NO.    1, LENGTH =   1.000000    
                            -----------------------------------------------

                              NUMBER OF TIME STEPS =     1

                               MULTIPLIER FOR DELT =     1.000

                            INITIAL TIME STEP SIZE =   1.000000    

 CHD NO.   LAYER   ROW   COL    START HEAD        END HEAD         
 ------------------------------------------------------------------
      1      1      1      1       95.00           95.00    
      2      1      1     52       85.00           85.00    
      3      1      2      1       95.00           95.00    
      4      1      2     52       85.00           85.00    
      5      1      3      1       95.00           95.00    
      6      1      3     52       85.00           85.00    
      7      1      4      1       95.00           95.00    
      8      1      4     52       85.00           85.00    
      9      1      5      1       95.00           95.00    
     10      1      5     52       85.00           85.00    
     11      1      6      1       95.00           95.00    
     12      1      6     52       85.00           85.00    
     13      1      7      1       95.00           95.00    
     14      1      7     52       85.00           85.00    
     15      1      8      1       95.00           95.00    
     16      1      8     52       85.00           85.00    
     17      1      9      1       95.00           95.00    
     18      1      9     52       85.00           85.00    
     19      1     10      1       95.00           95.00    
     20      1     10     52       85.00           85.00    
     21      1     11      1       95.00           95.00    
     22      1     11     52       85.00           85.00    
     23      1     12      1       95.00           95.00    
     24      1     12     52       85.00           85.00    
     25      1     13      1       95.00           95.00    
     26      1     13     52       85.00           85.00    
     27      1     14      1       95.00           95.00    
     28      1     14     52       85.00           85.00    
     29      1     15      1       95.00           95.00    
     30      1     15     52       85.00           85.00    
     31      1     16      1       95.00           95.00    
     32      1     16     52       85.00           85.00    
     33      1     17      1       95.00           95.00    
     34      1     17     52       85.00           85.00    
     35      1     18      1       95.00           95.00    
     36      1     18     52       85.00           85.00    
     37      1     19      1       95.00           95.00    
     38      1     19     52       85.00           85.00    
     39      1     20      1       95.00           95.00    
     40      1     20     52       85.00           85.00    
     41      1     21      1       95.00           95.00    
     42      1     21     52       85.00           85.00    
     43      1     22      1       95.00           95.00    
     44      1     22     52       85.00           85.00    
     45      1     23      1       95.00           95.00    
     46      1     23     52       85.00           85.00    
     47      1     24      1       95.00           95.00    
     48      1     24     52       85.00           85.00    
     49      1     25      1       95.00           95.00    
     50      1     25     52       85.00           85.00    
     51      1     26      1       95.00           95.00    
     52      1     26     52       85.00           85.00    
     53      1     27      1       95.00           95.00    
     54      1     27     52       85.00           85.00    
     55      1     28      1       95.00           95.00    
     56      1     28     52       85.00           85.00    
     57      1     29      1       95.00           95.00    
     58      1     29     52       85.00           85.00    
     59      1     30      1       95.00           95.00    
     60      1     30     52       85.00           85.00    
     61      1     31      1       95.00           95.00    
     62      1     31     52       85.00           85.00    
     63      1     32      1       95.00           95.00    
     64      1     32     52       85.00           85.00    
     65      1     33      1       95.00           95.00    
     66      1     33     52       85.00           85.00    
     67      1     34      1       95.00           95.00    
     68      1     34     52       85.00           85.00    
     69      1     35      1       95.00           95.00    
     70      1     35     52       85.00           85.00    
     71      1     36      1       95.00           95.00    
     72      1     36     52       85.00           85.00    
     73      1     37      1       95.00           95.00    
     74      1     37     52       85.00           85.00    
     75      1     38      1       95.00           95.00    
     76      1     38     52       85.00           85.00    
     77      1     39      1       95.00           95.00    
     78      1     39     52       85.00           85.00    
     79      1     40      1       95.00           95.00    
     80      1     40     52       85.00           85.00    
     81      1     41      1       95.00           95.00    
     82      1     41     52       85.00           85.00    
     83      1     42      1       95.00           95.00    
     84      1     42     52       85.00           85.00    
     85      1     43      1       95.00           95.00    
     86      1     43     52       85.00           85.00    
     87      1     44      1       95.00           95.00    
     88      1     44     52       85.00           85.00    
     89      1     45      1       95.00           95.00    
     90      1     45     52       85.00           85.00    
     91      1     46      1       95.00           95.00    
     92      1     46     52       85.00           85.00    
     93      1     47      1       95.00           95.00    
     94      1     47     52       85.00           85.00    
     95      1     48      1       95.00           95.00    
     96      1     48     52       85.00           85.00    
     97      1     49      1       95.00           95.00    
     98      1     49     52       85.00           85.00    
     99      1     50      1       95.00           95.00    
    100      1     50     52       85.00           85.00    
    101      1     51      1       95.00           95.00    
    102      1     51     52       85.00           85.00    
    103      1     52      1       95.00           95.00    
    104      1     52     52       85.00           85.00    
    105      1     53      1       95.00           95.00    
    106      1     53     52       85.00           85.00    
    107      1     54      1       95.00           95.00    
    108      1     54     52       85.00           85.00    
    109      1     55      1       95.00           95.00    
    110      1     55     52       85.00           85.00    
    111      1     56      1       95.00           95.00    
    112      1     56     52       85.00           85.00    
    113      1     57      1       95.00           95.00    
    114      1     57     52       85.00           85.00    
    115      1     58      1       95.00           95.00    
    116      1     58     52       85.00           85.00    
    117      1     59      1       95.00           95.00    
    118      1     59     52       85.00           85.00    
    119      1     60      1       95.00           95.00    
    120      1     60     52       85.00           85.00    
    121      1     61      1       95.00           95.00    
    122      1     61     52       85.00           85.00    
    123      1     62      1       95.00           95.00    
    124      1     62     52       85.00           85.00    
    125      1     63      1       95.00           95.00    
    126      1     63     52       85.00           85.00    
    127      1     64      1       95.00           95.00    
    128      1     64     52       85.00           85.00    
    129      1     65      1       95.00           95.00    
    130      1     65     52       85.00           85.00    
    131      1     66      1       95.00           95.00    
    132      1     66     52       85.00           85.00    
    133      1     67      1       95.00           95.00    
    134      1     67     52       85.00           85.00    
    135      1     68      1       95.00           95.00    
    136      1     68     52       85.00           85.00    
    137      1     69      1       95.00           95.00    
    138      1     69     52       85.00           85.00    
    139      1     70      1       95.00           95.00    
    140      1     70     52       85.00           85.00    
    141      1     71      1       95.00           95.00    
    142      1     71     52       85.00           85.00    
    143      1     72      1       95.00           95.00    
    144      1     72     52       85.00           85.00    
    145      1     73      1       95.00           95.00    
    146      1     73     52       85.00           85.00    
    147      1     74      1       95.00           95.00    
    148      1     74     52       85.00           85.00    
    149      1     75      1       95.00           95.00    
    150      1     75     52       85.00           85.00    
    151      1     76      1       95.00           95.00    
    152      1     76     52       85.00           85.00    
    153      1     77      1       95.00           95.00    
    154      1     77     52       85.00           85.00    
    155      1     78      1       95.00           95.00    
    156      1     78     52       85.00           85.00    
    157      1     79      1       95.00           95.00    
    158      1     79     52       85.00           85.00    
    159      1     80      1       95.00           95.00    
    160      1     80     52       85.00           85.00    
    161      1     81      1       95.00           95.00    
    162      1     81     52       85.00           85.00    
    163      1     82      1       95.00           95.00    
    164      1     82     52       85.00           85.00    
    165      1     83      1       95.00           95.00    
    166      1     83     52       85.00           85.00    
    167      1     84      1       95.00           95.00    
    168      1     84     52       85.00           85.00    
    169      1     85      1       95.00           95.00    
    170      1     85     52       85.00           85.00    
    171      1     86      1       95.00           95.00    
    172      1     86     52       85.00           85.00    
    173      1     87      1       95.00           95.00    
    174      1     87     52       85.00           85.00    
    175      1     88      1       95.00           95.00    
    176      1     88     52       85.00           85.00    
    177      1     89      1       95.00           95.00    
    178      1     89     52       85.00           85.00    
    179      1     90      1       95.00           95.00    
    180      1     90     52       85.00           85.00    
    181      1     91      1       95.00           95.00    
    182      1     91     52       85.00           85.00    
    183      1     92      1       95.00           95.00    
    184      1     92     52       85.00           85.00    
    185      1     93      1       95.00           95.00    
    186      1     93     52       85.00           85.00    


    186 TIME-VARIANT SPECIFIED-HEAD CELLS
 
 SOLVING FOR HEAD 

 OUTPUT CONTROL FOR STRESS PERIOD    1   TIME STEP    1
    SAVE HEAD FOR ALL LAYERS
    SAVE BUDGET

 HEAD WILL BE SAVED ON UNIT   51 AT END OF TIME STEP    1, STRESS PERIOD    1
1
  VOLUMETRIC BUDGET FOR ENTIRE MODEL AT END OF TIME STEP    1, STRESS PERIOD   1
  ------------------------------------------------------------------------------

     CUMULATIVE VOLUMES      L**3       RATES FOR THIS TIME STEP      L**3/T
     ------------------                 ------------------------

           IN:                                      IN:
           ---                                      ---
             STORAGE =           0.0000               STORAGE =           0.0000
       CONSTANT HEAD =       10940.4795         CONSTANT HEAD =       10940.4795

            TOTAL IN =       10940.4795              TOTAL IN =       10940.4795

          OUT:                                     OUT:
          ----                                     ----
             STORAGE =           0.0000               STORAGE =           0.0000
       CONSTANT HEAD =       10940.4795         CONSTANT HEAD =       10940.4795

           TOTAL OUT =       10940.4795             TOTAL OUT =       10940.4795

            IN - OUT =           0.0000              IN - OUT =           0.0000

 PERCENT DISCREPANCY =           0.00     PERCENT DISCREPANCY =           0.00






         TIME SUMMARY AT END OF TIME STEP    1 IN STRESS PERIOD    1
                    SECONDS     MINUTES      HOURS       DAYS        YEARS
                    -----------------------------------------------------------
   TIME STEP LENGTH  1.0000     1.66667E-02 2.77778E-04 1.15741E-05 3.16881E-08
 STRESS PERIOD TIME  1.0000     1.66667E-02 2.77778E-04 1.15741E-05 3.16881E-08
         TOTAL TIME  1.0000     1.66667E-02 2.77778E-04 1.15741E-05 3.16881E-08
1

 Run end date and time (yyyy/mm/dd hh:mm:ss): 2025/08/08 18:27:41
 Elapsed run time:  0.024 Seconds

