                                  MODFLOW-USG      
      U.S. GEOLOGICAL SURVEY MODULAR FINITE-DIFFERENCE GROUNDWATER FLOW MODEL
                            VERSION 1.5.00 02/27/2019

 LIST FILE: test.list
                         UNIT    2
  BAS PACKAGE FILE HAS NOT BEEN OPENED.
