                                  MODFLOW-2005     
      U.S. GEOLOGICAL SURVEY MODULAR FINITE-DIFFERENCE GROUND-WATER FLOW MODEL
                            VERSION 1.12.00 2/3/2017

 LIST FILE: lak_demo.list
                         UNIT    2

 OPENING lak_demo.dis
 FILE TYPE:DIS   UNIT   11   STATUS:OLD    
 FORMAT:FORMATTED              ACCESS:SEQUENTIAL          

 OPENING lak_demo.bas
 FILE TYPE:BAS6   UNIT   13   STATUS:OLD    
 FORMAT:FORMATTED              ACCESS:SEQUENTIAL          

 OPENING lak_demo.lpf
 FILE TYPE:LPF   UNIT   15   STATUS:OLD    
 FORMAT:FORMATTED              ACCESS:SEQUENTIAL          

 OPENING lak_demo.lak
 FILE TYPE:LAK   UNIT  119   STATUS:OLD    
 FORMAT:FORMATTED              ACCESS:SEQUENTIAL          

 OPENING lak_demo.oc
 FILE TYPE:OC   UNIT   14   STATUS:OLD    
 FORMAT:FORMATTED              ACCESS:SEQUENTIAL          

 OPENING lak_demo.pcg
 FILE TYPE:PCG   UNIT   27   STATUS:OLD    
 FORMAT:FORMATTED              ACCESS:SEQUENTIAL          

 OPENING lak_demo.cbc
 FILE TYPE:DATA(BINARY)   UNIT   53   STATUS:REPLACE
 FORMAT:UNFORMATTED            ACCESS:STREAM              

 OPENING lak_demo.hds
 FILE TYPE:DATA(BINARY)   UNIT   51   STATUS:REPLACE
 FORMAT:UNFORMATTED            ACCESS:STREAM              

 BAS -- BASIC PACKAGE, VERSION 7, 5/2/2005 INPUT READ FROM UNIT   13
 
 MODFLOW was compiled using mixed precision
 Precision of REAL variables:           6
 Precision of DOUBLE PRECISION variables:          15

 DISCRETIZATION INPUT DATA READ FROM UNIT   11
 # DIS package for MODFLOW-2005 generated by Flopy 3.9.3
    1 LAYERS         7 ROWS         7 COLUMNS
    1 STRESS PERIOD(S) IN SIMULATION
 MODEL TIME UNIT IS DAYS
 MODEL LENGTH UNIT IS METERS
  Confining bed flag for each layer:
   0

                     DELR =   100.000    

                     DELC =   100.000    

 TOP ELEVATION OF LAYER 1 =   105.000    

   MODEL LAYER BOTTOM EL. =   0.00000     FOR LAYER   1


 STRESS PERIOD     LENGTH       TIME STEPS     MULTIPLIER FOR DELT    SS FLAG
 ----------------------------------------------------------------------------
        1         1.000000          1                    1.000         SS

 STEADY-STATE SIMULATION



 
 # BAS6 package for MODFLOW-2005 generated by Flopy 3.9.3                        
 THE FREE FORMAT OPTION HAS BEEN SELECTED



                     BOUNDARY ARRAY FOR LAYER   1
 READING ON UNIT   13 WITH FORMAT: (7I10)              

 AQUIFER HEAD WILL BE SET TO  -999.99     AT ALL NO-FLOW NODES (IBOUND=0).



                       INITIAL HEAD FOR LAYER   1
 READING ON UNIT   13 WITH FORMAT: (7E15.6)            
 # OC package for MODFLOW-2005 generated by Flopy 3.9.3

 OUTPUT CONTROL IS SPECIFIED ONLY AT TIME STEPS FOR WHICH OUTPUT IS DESIRED
 COMPACT CELL-BY-CELL BUDGET FILES WILL BE WRITTEN
 AUXILIARY DATA WILL BE SAVED IN CELL-BY-CELL BUDGET FILES
 HEAD PRINT FORMAT CODE IS   0    DRAWDOWN PRINT FORMAT CODE IS   0
 HEADS WILL BE SAVED ON UNIT   51    DRAWDOWNS WILL BE SAVED ON UNIT    0

 LPF -- LAYER-PROPERTY FLOW PACKAGE, VERSION 7, 5/2/2005
         INPUT READ FROM UNIT   15
 # LPF package for MODFLOW-2005 generated by Flopy 3.9.3
 CELL-BY-CELL FLOWS WILL BE SAVED ON UNIT   53
 HEAD AT CELLS THAT CONVERT TO DRY= -1.00000E+30
 No named parameters

   LAYER FLAGS:
 LAYER       LAYTYP        LAYAVG         CHANI        LAYVKA        LAYWET
 ---------------------------------------------------------------------------
    1             0             0     1.000E+00             0             0

   INTERPRETATION OF LAYER FLAGS:
                        INTERBLOCK     HORIZONTAL    DATA IN
         LAYER TYPE   TRANSMISSIVITY   ANISOTROPY   ARRAY VKA   WETTABILITY
 LAYER      (LAYTYP)      (LAYAVG)       (CHANI)      (LAYVKA)      (LAYWET)
 ---------------------------------------------------------------------------
    1      CONFINED      HARMONIC     1.000E+00    VERTICAL K  NON-WETTABLE

 WETTING CAPABILITY IS NOT ACTIVE IN ANY LAYER

    HYD. COND. ALONG ROWS =   10.0000     FOR LAYER   1

      VERTICAL HYD. COND. =   1.00000     FOR LAYER   1

 LAK7 -- LAKE PACKAGE, VERSION 7, 1/07/2013 INPUT READ FROM UNIT119
 # LAK package for MODFLOW-2005 generated by Flopy 3.9.3
 No named parameters
 Model grid will be used to develop 
 volume and area relationship. 
 SPACE ALLOCATION FOR     24 GRID CELL FACES ADJACENT TOLAKES
 MAXIMUM NUMBER OF LAKES IS  1 FOR THIS SIMULATION
 CELL-BY-CELL FLOWS WILL BE RECORDED ON UNIT   53


 NEWTON ITERATION METHOD FOR COMPUTING LAKE STAGE DURING STEADY-STATE STRESS PERIODS HAS BEEN MODIFIED:
 SPECIFIED THETA OF  1.000 WILL BE AUTOMATICALLY CHANGED TO 1.0 FOR ALL STEADY STATE STRESS PERIODS.
 MAXIMUM NUMBER OF STEADY-STATE ITERATIONS (NSSITR) =     0
 CLOSURE CRITERIA FOR STEADY-STATE LAKE STAGE (SSCNCR) =  0.000000E+00



 PCG -- CONJUGATE-GRADIENT SOLUTION PACKAGE, VERSION 7, 5/2/2005
 # PCG package for MODFLOW-2005 generated by Flopy 3.9.3
 MAXIMUM OF    200 CALLS OF SOLUTION ROUTINE
 MAXIMUM OF    100 INTERNAL ITERATIONS PER CALL TO SOLUTION ROUTINE
 MATRIX PRECONDITIONING TYPE :    1



                                    SOLUTION BY THE CONJUGATE-GRADIENT METHOD
                                   -------------------------------------------
                    MAXIMUM NUMBER OF CALLS TO PCG ROUTINE =      200
                        MAXIMUM ITERATIONS PER CALL TO PCG =      100
                               MATRIX PRECONDITIONING TYPE =        1
        RELAXATION FACTOR (ONLY USED WITH PRECOND. TYPE 1) =    0.10000E+01
 PARAMETER OF POLYNOMIAL PRECOND. = 2 (2) OR IS CALCULATED :        0
                         HEAD CHANGE CRITERION FOR CLOSURE =    0.10000E+00
                     RESIDUAL CHANGE CRITERION FOR CLOSURE =    0.10000E+01
            PCG HEAD AND RESIDUAL CHANGE PRINTOUT INTERVAL =      999
     PRINTING FROM SOLVER IS LIMITED(1) OR SUPPRESSED (>1) =        3
                            STEADY-STATE DAMPING PARAMETER =    0.10000E+01
                               TRANSIENT DAMPING PARAMETER =    0.10000E+01
1
                            STRESS PERIOD NO.    1, LENGTH =   1.000000    
                            -----------------------------------------------

                              NUMBER OF TIME STEPS =     1

                               MULTIPLIER FOR DELT =     1.000

                            INITIAL TIME STEP SIZE =   1.000000    


 LAKE PACKAGE ACTIVE:  CALCULATED LAKE STAGE FOR EACH TIME STEP WILL BE STORED IN HNEW ARRAY.



 INITIAL LAKE STAGE:  LAKE    STAGE    SS MIN    SS MAX

                        1   100.500-10000.000 10000.000




 If any subsequent steady-state stress periods, min. and max. stages for each lake will be read in Record 9a.





                      LAKE ID ARRAY FOR LAYER   1
 READING ON UNIT  119 WITH FORMAT: (7I10)              





   LAKEBED LEAKANCE ARRAY =  1.000000E-02 FOR LAYER   1

       LOCATIONS, LAKE #, INTERFACE TYPE FOR GRID CELLS ADJACENT TO LAKES:
     -----------------------------------------------------------------------
     LAYER #    ROW #    COLUMN #   LAKE #  INTERFACE TYPE  LAKEBED LEAKANCE
         1         3         2         1         2             1.000E-02
         1         4         2         1         2             1.000E-02
         1         5         2         1         2             1.000E-02
         1         2         3         1         3             1.000E-02
         1         3         3         1         6             0.000E+00
         1         4         3         1         6             0.000E+00
         1         5         3         1         6             0.000E+00
         1         6         3         1         4             1.000E-02
         1         2         4         1         3             1.000E-02
         1         3         4         1         6             0.000E+00
         1         4         4         1         6             0.000E+00
         1         5         4         1         6             0.000E+00
         1         6         4         1         4             1.000E-02
         1         2         5         1         3             1.000E-02
         1         3         5         1         6             0.000E+00
         1         4         5         1         6             0.000E+00
         1         5         5         1         6             0.000E+00
         1         6         5         1         4             1.000E-02
         1         3         6         1         1             1.000E-02
         1         4         6         1         1             1.000E-02
         1         5         6         1         1             1.000E-02

     NUMBER OF LAKE-AQUIFER CELL INTERFACES =    21


 STAGE/VOLUME RELATION FOR LAKE  1

      STAGE        VOLUME        AREA

   0.00000E+00   0.00000E+00   9.00000E+04
   7.00000E-01   6.30000E+04   9.00000E+04
   1.40000E+00   1.26000E+05   9.00000E+04
   2.10000E+00   1.89000E+05   9.00000E+04
   2.80000E+00   2.52000E+05   9.00000E+04
   3.50000E+00   3.15000E+05   9.00000E+04
   4.20000E+00   3.78000E+05   9.00000E+04
   4.90000E+00   4.41000E+05   9.00000E+04
   5.60000E+00   5.04000E+05   9.00000E+04
   6.30000E+00   5.67000E+05   9.00000E+04
   7.00000E+00   6.30000E+05   9.00000E+04
   7.70000E+00   6.93000E+05   9.00000E+04
   8.40000E+00   7.56000E+05   9.00000E+04
   9.10000E+00   8.19000E+05   9.00000E+04
   9.80000E+00   8.82000E+05   9.00000E+04
   1.05000E+01   9.45000E+05   9.00000E+04
   1.12000E+01   1.00800E+06   9.00000E+04
   1.19000E+01   1.07100E+06   9.00000E+04
   1.26000E+01   1.13400E+06   9.00000E+04
   1.33000E+01   1.19700E+06   9.00000E+04
   1.40000E+01   1.26000E+06   9.00000E+04
   1.47000E+01   1.32300E+06   9.00000E+04
   1.54000E+01   1.38600E+06   9.00000E+04
   1.61000E+01   1.44900E+06   9.00000E+04
   1.68000E+01   1.51200E+06   9.00000E+04
   1.75000E+01   1.57500E+06   9.00000E+04
   1.82000E+01   1.63800E+06   9.00000E+04
   1.89000E+01   1.70100E+06   9.00000E+04
   1.96000E+01   1.76400E+06   9.00000E+04
   2.03000E+01   1.82700E+06   9.00000E+04
   2.10000E+01   1.89000E+06   9.00000E+04
   2.17000E+01   1.95300E+06   9.00000E+04
   2.24000E+01   2.01600E+06   9.00000E+04
   2.31000E+01   2.07900E+06   9.00000E+04
   2.38000E+01   2.14200E+06   9.00000E+04
   2.45000E+01   2.20500E+06   9.00000E+04
   2.52000E+01   2.26800E+06   9.00000E+04
   2.59000E+01   2.33100E+06   9.00000E+04
   2.66000E+01   2.39400E+06   9.00000E+04
   2.73000E+01   2.45700E+06   9.00000E+04
   2.80000E+01   2.52000E+06   9.00000E+04
   2.87000E+01   2.58300E+06   9.00000E+04
   2.94000E+01   2.64600E+06   9.00000E+04
   3.01000E+01   2.70900E+06   9.00000E+04
   3.08000E+01   2.77200E+06   9.00000E+04
   3.15000E+01   2.83500E+06   9.00000E+04
   3.22000E+01   2.89800E+06   9.00000E+04
   3.29000E+01   2.96100E+06   9.00000E+04
   3.36000E+01   3.02400E+06   9.00000E+04
   3.43000E+01   3.08700E+06   9.00000E+04
   3.50000E+01   3.15000E+06   9.00000E+04
   3.57000E+01   3.21300E+06   9.00000E+04
   3.64000E+01   3.27600E+06   9.00000E+04
   3.71000E+01   3.33900E+06   9.00000E+04
   3.78000E+01   3.40200E+06   9.00000E+04
   3.85000E+01   3.46500E+06   9.00000E+04
   3.92000E+01   3.52800E+06   9.00000E+04
   3.99000E+01   3.59100E+06   9.00000E+04
   4.06000E+01   3.65400E+06   9.00000E+04
   4.13000E+01   3.71700E+06   9.00000E+04
   4.20000E+01   3.78000E+06   9.00000E+04
   4.27000E+01   3.84300E+06   9.00000E+04
   4.34000E+01   3.90600E+06   9.00000E+04
   4.41000E+01   3.96900E+06   9.00000E+04
   4.48000E+01   4.03200E+06   9.00000E+04
   4.55000E+01   4.09500E+06   9.00000E+04
   4.62000E+01   4.15800E+06   9.00000E+04
   4.69000E+01   4.22100E+06   9.00000E+04
   4.76000E+01   4.28400E+06   9.00000E+04
   4.83000E+01   4.34700E+06   9.00000E+04
   4.90000E+01   4.41000E+06   9.00000E+04
   4.97000E+01   4.47300E+06   9.00000E+04
   5.04000E+01   4.53600E+06   9.00000E+04
   5.11000E+01   4.59900E+06   9.00000E+04
   5.18000E+01   4.66200E+06   9.00000E+04
   5.25000E+01   4.72500E+06   9.00000E+04
   5.32000E+01   4.78800E+06   9.00000E+04
   5.39000E+01   4.85100E+06   9.00000E+04
   5.46000E+01   4.91400E+06   9.00000E+04
   5.53000E+01   4.97700E+06   9.00000E+04
   5.60000E+01   5.04000E+06   9.00000E+04
   5.67000E+01   5.10300E+06   9.00000E+04
   5.74000E+01   5.16600E+06   9.00000E+04
   5.81000E+01   5.22900E+06   9.00000E+04
   5.88000E+01   5.29200E+06   9.00000E+04
   5.95000E+01   5.35500E+06   9.00000E+04
   6.02000E+01   5.41800E+06   9.00000E+04
   6.09000E+01   5.48100E+06   9.00000E+04
   6.16000E+01   5.54400E+06   9.00000E+04
   6.23000E+01   5.60700E+06   9.00000E+04
   6.30000E+01   5.67000E+06   9.00000E+04
   6.37000E+01   5.73300E+06   9.00000E+04
   6.44000E+01   5.79600E+06   9.00000E+04
   6.51000E+01   5.85900E+06   9.00000E+04
   6.58000E+01   5.92200E+06   9.00000E+04
   6.65000E+01   5.98500E+06   9.00000E+04
   6.72000E+01   6.04800E+06   9.00000E+04
   6.79000E+01   6.11100E+06   9.00000E+04
   6.86000E+01   6.17400E+06   9.00000E+04
   6.93000E+01   6.23700E+06   9.00000E+04
   7.00000E+01   6.30000E+06   9.00000E+04
   7.07000E+01   6.36300E+06   9.00000E+04
   7.14000E+01   6.42600E+06   9.00000E+04
   7.21000E+01   6.48900E+06   9.00000E+04
   7.28000E+01   6.55200E+06   9.00000E+04
   7.35000E+01   6.61500E+06   9.00000E+04
   7.42000E+01   6.67800E+06   9.00000E+04
   7.49000E+01   6.74100E+06   9.00000E+04
   7.56000E+01   6.80400E+06   9.00000E+04
   7.63000E+01   6.86700E+06   9.00000E+04
   7.70000E+01   6.93000E+06   9.00000E+04
   7.77000E+01   6.99300E+06   9.00000E+04
   7.84000E+01   7.05600E+06   9.00000E+04
   7.91000E+01   7.11900E+06   9.00000E+04
   7.98000E+01   7.18200E+06   9.00000E+04
   8.05000E+01   7.24500E+06   9.00000E+04
   8.12000E+01   7.30800E+06   9.00000E+04
   8.19000E+01   7.37100E+06   9.00000E+04
   8.26000E+01   7.43400E+06   9.00000E+04
   8.33000E+01   7.49700E+06   9.00000E+04
   8.40000E+01   7.56000E+06   9.00000E+04
   8.47000E+01   7.62300E+06   9.00000E+04
   8.54000E+01   7.68600E+06   9.00000E+04
   8.61000E+01   7.74900E+06   9.00000E+04
   8.67999E+01   7.81200E+06   9.00000E+04
   8.74999E+01   7.87500E+06   9.00000E+04
   8.81999E+01   7.93800E+06   9.00000E+04
   8.88999E+01   8.00100E+06   9.00000E+04
   8.95999E+01   8.06400E+06   9.00000E+04
   9.02999E+01   8.12700E+06   9.00000E+04
   9.09999E+01   8.19000E+06   9.00000E+04
   9.16999E+01   8.25300E+06   9.00000E+04
   9.23999E+01   8.31600E+06   9.00000E+04
   9.30999E+01   8.37900E+06   9.00000E+04
   9.37999E+01   8.44200E+06   9.00000E+04
   9.44999E+01   8.50500E+06   9.00000E+04
   9.51999E+01   8.56800E+06   9.00000E+04
   9.58999E+01   8.63100E+06   9.00000E+04
   9.65999E+01   8.69400E+06   9.00000E+04
   9.72999E+01   8.75700E+06   9.00000E+04
   9.79999E+01   8.82000E+06   9.00000E+04
   9.86999E+01   8.88300E+06   9.00000E+04
   9.93999E+01   8.94600E+06   9.00000E+04
   1.00100E+02   9.00900E+06   9.00000E+04
   1.00800E+02   9.07200E+06   9.00000E+04
   1.01500E+02   9.13500E+06   9.00000E+04
   1.02200E+02   9.19800E+06   9.00000E+04
   1.02900E+02   9.26100E+06   9.00000E+04
   1.03600E+02   9.32400E+06   9.00000E+04
   1.04300E+02   9.38700E+06   9.00000E+04
   1.05000E+02   9.45000E+06   9.00000E+04


 NUMBER OF CONNECTED LAKE SYSTEMS IN SIMULATION IS   0

 LAKE       PRECIP     EVAP     RUNOFF   WITHDRAW   BOTTOM     AREA
----------------------------------------------------------------------
   1     1.000E+00 0.000E+00 0.000E+00  0.000E+00 0.000E+00 9.000E+04




         C               INTERFACE CONDUCTANCES BETWEEN LAKE AND AQUIFER CELLS
   L     O          (IF TYPE = 6, CONDUCTANCE (L^2/T) IS BETWEEN AQUIFER CELL AND OVERLYING LAKE CELL.)
   A     L  L  T    (IF TYPE = 1 TO 4, CONDUCTANCES ARE PER UNIT SATURATED THICKNESS (L/T).)
   Y  R  U  A  Y
   E  O  M  K  P                        LAKEBED      C O N D U C T A N C E S
   R  W  N  E  E     DELTA Y   DELTA X  LEAKANCE   LAKEBED   AQUIFER  COMBINED
 _______________________________________________________________________________
   1  3  2  1  2    1.00E+02  1.00E+02  1.00E-02  1.00E+00  2.00E+01  9.524E-01
   1  4  2  1  2    1.00E+02  1.00E+02  1.00E-02  1.00E+00  2.00E+01  9.524E-01
   1  5  2  1  2    1.00E+02  1.00E+02  1.00E-02  1.00E+00  2.00E+01  9.524E-01
   1  2  3  1  3    1.00E+02  1.00E+02  1.00E-02  1.00E+00  2.00E+01  9.524E-01
   1  3  3  1  6    1.00E+02  1.00E+02  0.00E+00  0.00E+00  0.00E+00  0.000E+00
   1  4  3  1  6    1.00E+02  1.00E+02  0.00E+00  0.00E+00  0.00E+00  0.000E+00
   1  5  3  1  6    1.00E+02  1.00E+02  0.00E+00  0.00E+00  0.00E+00  0.000E+00
   1  6  3  1  4    1.00E+02  1.00E+02  1.00E-02  1.00E+00  2.00E+01  9.524E-01
   1  2  4  1  3    1.00E+02  1.00E+02  1.00E-02  1.00E+00  2.00E+01  9.524E-01
   1  3  4  1  6    1.00E+02  1.00E+02  0.00E+00  0.00E+00  0.00E+00  0.000E+00
   1  4  4  1  6    1.00E+02  1.00E+02  0.00E+00  0.00E+00  0.00E+00  0.000E+00
   1  5  4  1  6    1.00E+02  1.00E+02  0.00E+00  0.00E+00  0.00E+00  0.000E+00
   1  6  4  1  4    1.00E+02  1.00E+02  1.00E-02  1.00E+00  2.00E+01  9.524E-01
   1  2  5  1  3    1.00E+02  1.00E+02  1.00E-02  1.00E+00  2.00E+01  9.524E-01
   1  3  5  1  6    1.00E+02  1.00E+02  0.00E+00  0.00E+00  0.00E+00  0.000E+00
   1  4  5  1  6    1.00E+02  1.00E+02  0.00E+00  0.00E+00  0.00E+00  0.000E+00
   1  5  5  1  6    1.00E+02  1.00E+02  0.00E+00  0.00E+00  0.00E+00  0.000E+00
   1  6  5  1  4    1.00E+02  1.00E+02  1.00E-02  1.00E+00  2.00E+01  9.524E-01
   1  3  6  1  1    1.00E+02  1.00E+02  1.00E-02  1.00E+00  2.00E+01  9.524E-01
   1  4  6  1  1    1.00E+02  1.00E+02  1.00E-02  1.00E+00  2.00E+01  9.524E-01
   1  5  6  1  1    1.00E+02  1.00E+02  1.00E-02  1.00E+00  2.00E+01  9.524E-01
 
 SOLVING FOR HEAD 

 OUTPUT CONTROL FOR STRESS PERIOD    1   TIME STEP    1
    SAVE HEAD FOR ALL LAYERS
    SAVE BUDGET
 UBDSV2 SAVING "   CONSTANT HEAD" ON UNIT  53 AT TIME STEP  1, STRESS PERIOD   1
 UBDSV1 SAVING "FLOW RIGHT FACE " ON UNIT  53 AT TIME STEP  1, STRESS PERIOD   1
 UBDSV1 SAVING "FLOW FRONT FACE " ON UNIT  53 AT TIME STEP  1, STRESS PERIOD   1
 UBDSV4 SAVING "   LAKE  SEEPAGE" ON UNIT  53 AT TIME STEP  1, STRESS PERIOD   1


     0  LAKE CELLS ARE DRY.

 PERIOD     1     TIME STEP     1     TIME STEP LENGTH  1.0000E+00
 PERIOD TIME  1.0000E+00     TOTAL SIMULATION TIME  1.0000E+00


                 HYDROLOGIC BUDGET SUMMARIES FOR SIMULATED LAKES
     (ALL FLUID FLUXES ARE VOLUMES ADDED TO THE LAKE DURING PRESENT TIME STEP)
     ----------------------------------------------------------------------------------------
 LAKE    STAGE         VOLUME     VOL. CHANGE      PRECIP     EVAPORATION        RUNOFF
   1  1.005000E+02  9.045010E+06     N/A (SS)   9.000000E+04  0.000000E+00  0.000000E+00

            GROUND WATER            SURFACE WATER        WATER
 LAKE    INFLOW     OUTFLOW      INFLOW     OUTFLOW       USE
   1  1.5228E+01  3.9267E+02  0.0000E+00  0.0000E+00  0.0000E+00

      CONNECTED LAKE   TIME-STEP         STAGE-CHANGE          PERCENT
 LAKE    INFLUX      SURFACE AREA   TIME STEP  CUMULATIVE    DISCREPANCY
   1   0.0000E+00     9.0000E+04     N/A (SS)   N/A (SS)       99.564
 --------------------------------------------------------------------------------



            CUMULATIVE HYDROLOGIC BUDGET SUMMARIES FOR SIMULATED LAKES
     (ALL FLUID FLUXES ARE SUMS OF VOLUMES ADDED TO THE LAKE SINCE INITIAL TIME)
     ---------------------------------------------------------------------------
 LAKE       PRECIP       EVAP       RUNOFF
   1     9.0000E+04  0.0000E+00  0.0000E+00

            GROUND WATER            SURFACE WATER
 LAKE    INFLOW     OUTFLOW      INFLOW     OUTFLOW
   1  1.5228E+01  3.9267E+02  0.0000E+00  0.0000E+00

         WATER    CONNECTED LAKE   CHANGE       PERCENT
 LAKE     USE         INFLUX       IN VOL.    DISCREPANCY
   1   0.0000E+00   0.0000E+00    N/A (SS)      99.564
 --------------------------------------------------------------------------------


 HEAD WILL BE SAVED ON UNIT   51 AT END OF TIME STEP    1, STRESS PERIOD    1
1
  VOLUMETRIC BUDGET FOR ENTIRE MODEL AT END OF TIME STEP    1, STRESS PERIOD   1
  ------------------------------------------------------------------------------

     CUMULATIVE VOLUMES      L**3       RATES FOR THIS TIME STEP      L**3/T
     ------------------                 ------------------------

           IN:                                      IN:
           ---                                      ---
             STORAGE =           0.0000               STORAGE =           0.0000
       CONSTANT HEAD =         511.8054         CONSTANT HEAD =         511.8054
       LAKE  SEEPAGE =         392.6731         LAKE  SEEPAGE =         392.6731

            TOTAL IN =         904.4785              TOTAL IN =         904.4785

          OUT:                                     OUT:
          ----                                     ----
             STORAGE =           0.0000               STORAGE =           0.0000
       CONSTANT HEAD =         889.2517         CONSTANT HEAD =         889.2517
       LAKE  SEEPAGE =          15.2281         LAKE  SEEPAGE =          15.2281

           TOTAL OUT =         904.4799             TOTAL OUT =         904.4799

            IN - OUT =      -1.3428E-03              IN - OUT =      -1.3428E-03

 PERCENT DISCREPANCY =          -0.00     PERCENT DISCREPANCY =          -0.00






         TIME SUMMARY AT END OF TIME STEP    1 IN STRESS PERIOD    1
                    SECONDS     MINUTES      HOURS       DAYS        YEARS
                    -----------------------------------------------------------
   TIME STEP LENGTH  86400.      1440.0      24.000      1.0000     2.73785E-03
 STRESS PERIOD TIME  86400.      1440.0      24.000      1.0000     2.73785E-03
         TOTAL TIME  86400.      1440.0      24.000      1.0000     2.73785E-03
1

 Run end date and time (yyyy/mm/dd hh:mm:ss): 2025/08/08 16:31:13
 Elapsed run time:  0.003 Seconds

