                                  MODFLOW-2005     
      U.S. GEOLOGICAL SURVEY MODULAR FINITE-DIFFERENCE GROUND-WATER FLOW MODEL
                            VERSION 1.12.00 2/3/2017

 LIST FILE: swi2_demo.list
                         UNIT    2

 OPENING swi2_demo.dis
 FILE TYPE:DIS   UNIT   11   STATUS:OLD    
 FORMAT:FORMATTED              ACCESS:SEQUENTIAL          

 OPENING swi2_demo.bas
 FILE TYPE:BAS6   UNIT   13   STATUS:OLD    
 FORMAT:FORMATTED              ACCESS:SEQUENTIAL          

 OPENING swi2_demo.lpf
 FILE TYPE:LPF   UNIT   15   STATUS:OLD    
 FORMAT:FORMATTED              ACCESS:SEQUENTIAL          

 OPENING swi2_demo.rch
 FILE TYPE:RCH   UNIT   19   STATUS:OLD    
 FORMAT:FORMATTED              ACCESS:SEQUENTIAL          

 OPENING swi2_demo.wel
 FILE TYPE:WEL   UNIT   20   STATUS:OLD    
 FORMAT:FORMATTED              ACCESS:SEQUENTIAL          

 OPENING swi2_demo.swi2
 FILE TYPE:SWI2   UNIT   29   STATUS:OLD    
 FORMAT:FORMATTED              ACCESS:SEQUENTIAL          

 OPENING swi2_demo.pcg
 FILE TYPE:PCG   UNIT   27   STATUS:OLD    
 FORMAT:FORMATTED              ACCESS:SEQUENTIAL          

 OPENING swi2_demo.oc
 FILE TYPE:OC   UNIT   14   STATUS:OLD    
 FORMAT:FORMATTED              ACCESS:SEQUENTIAL          

 OPENING swi2_demo.hds
 FILE TYPE:DATA(BINARY)   UNIT   51   STATUS:REPLACE
 FORMAT:UNFORMATTED            ACCESS:STREAM              

 BAS -- BASIC PACKAGE, VERSION 7, 5/2/2005 INPUT READ FROM UNIT   13
 
 MODFLOW was compiled using mixed precision
 Precision of REAL variables:           6
 Precision of DOUBLE PRECISION variables:          15

 DISCRETIZATION INPUT DATA READ FROM UNIT   11
 # DIS package for MODFLOW-2005 generated by Flopy 3.9.3
    1 LAYERS         1 ROWS        50 COLUMNS
    2 STRESS PERIOD(S) IN SIMULATION
 MODEL TIME UNIT IS DAYS
 MODEL LENGTH UNIT IS METERS
  Confining bed flag for each layer:
   0

                     DELR =   50.0000    

                     DELC =   1.00000    

 TOP ELEVATION OF LAYER 1 =   0.00000    

   MODEL LAYER BOTTOM EL. =  -40.0000     FOR LAYER   1


 STRESS PERIOD     LENGTH       TIME STEPS     MULTIPLIER FOR DELT    SS FLAG
 ----------------------------------------------------------------------------
        1         1.000000          1                    1.000         SS
        2         3650.000        100                    1.000         TR

 COMBINED STEADY-STATE AND TRANSIENT SIMULATION



 
 # BAS6 package for MODFLOW-2005 generated by Flopy 3.9.3                        
 THE FREE FORMAT OPTION HAS BEEN SELECTED



                     BOUNDARY ARRAY FOR LAYER   1
 READING ON UNIT   13 WITH FORMAT: (50I10)             

 AQUIFER HEAD WILL BE SET TO  -999.99     AT ALL NO-FLOW NODES (IBOUND=0).



                       INITIAL HEAD FOR LAYER   1
 READING ON UNIT   13 WITH FORMAT: (50E15.6)           
 # OC package for MODFLOW-2005 generated by Flopy 3.9.3

 OUTPUT CONTROL IS SPECIFIED ONLY AT TIME STEPS FOR WHICH OUTPUT IS DESIRED
 COMPACT CELL-BY-CELL BUDGET FILES WILL BE WRITTEN
 AUXILIARY DATA WILL BE SAVED IN CELL-BY-CELL BUDGET FILES
 HEAD PRINT FORMAT CODE IS   0    DRAWDOWN PRINT FORMAT CODE IS   0
 HEADS WILL BE SAVED ON UNIT   51    DRAWDOWNS WILL BE SAVED ON UNIT    0

 LPF -- LAYER-PROPERTY FLOW PACKAGE, VERSION 7, 5/2/2005
         INPUT READ FROM UNIT   15
 # LPF package for MODFLOW-2005 generated by Flopy 3.9.3
 HEAD AT CELLS THAT CONVERT TO DRY= -1.00000E+30
 No named parameters

   LAYER FLAGS:
 LAYER       LAYTYP        LAYAVG         CHANI        LAYVKA        LAYWET
 ---------------------------------------------------------------------------
    1             0             0     1.000E+00             0             0

   INTERPRETATION OF LAYER FLAGS:
                        INTERBLOCK     HORIZONTAL    DATA IN
         LAYER TYPE   TRANSMISSIVITY   ANISOTROPY   ARRAY VKA   WETTABILITY
 LAYER      (LAYTYP)      (LAYAVG)       (CHANI)      (LAYVKA)      (LAYWET)
 ---------------------------------------------------------------------------
    1      CONFINED      HARMONIC     1.000E+00    VERTICAL K  NON-WETTABLE

 WETTING CAPABILITY IS NOT ACTIVE IN ANY LAYER

    HYD. COND. ALONG ROWS =   10.0000     FOR LAYER   1

      VERTICAL HYD. COND. =   1.00000     FOR LAYER   1

         SPECIFIC STORAGE =  1.000000E-05 FOR LAYER   1

 WEL -- WELL PACKAGE, VERSION 7, 5/2/2005 INPUT READ FROM UNIT   20
 # WEL package for MODFLOW-2005 generated by Flopy 3.9.3
 No named parameters
 MAXIMUM OF      1 ACTIVE WELLS AT ONE TIME


     0 Well parameters

 RCH -- RECHARGE PACKAGE, VERSION 7, 5/2/2005 INPUT READ FROM UNIT   19
 # RCH package for MODFLOW-2005 generated by Flopy 3.9.3
 No named parameters
 OPTION 3 -- RECHARGE TO HIGHEST ACTIVE NODE IN EACH VERTICAL COLUMN


     0 Recharge parameters

 PCG -- CONJUGATE-GRADIENT SOLUTION PACKAGE, VERSION 7, 5/2/2005
 # PCG package for MODFLOW-2005 generated by Flopy 3.9.3
 MAXIMUM OF    200 CALLS OF SOLUTION ROUTINE
 MAXIMUM OF    100 INTERNAL ITERATIONS PER CALL TO SOLUTION ROUTINE
 MATRIX PRECONDITIONING TYPE :    1



                                    SOLUTION BY THE CONJUGATE-GRADIENT METHOD
                                   -------------------------------------------
                    MAXIMUM NUMBER OF CALLS TO PCG ROUTINE =      200
                        MAXIMUM ITERATIONS PER CALL TO PCG =      100
                               MATRIX PRECONDITIONING TYPE =        1
        RELAXATION FACTOR (ONLY USED WITH PRECOND. TYPE 1) =    0.98000E+00
 PARAMETER OF POLYNOMIAL PRECOND. = 2 (2) OR IS CALCULATED :        1
                         HEAD CHANGE CRITERION FOR CLOSURE =    0.10000E-02
                     RESIDUAL CHANGE CRITERION FOR CLOSURE =    0.10000E-01
            PCG HEAD AND RESIDUAL CHANGE PRINTOUT INTERVAL =        1
     PRINTING FROM SOLVER IS LIMITED(1) OR SUPPRESSED (>1) =        0
                            STEADY-STATE DAMPING PARAMETER =    0.10000E+01
                               TRANSIENT DAMPING PARAMETER =    0.10000E+01


 SWI2 -- SWI PACKAGE, VERSION 2.0.0, 07/22/2013
 --------------------------------------------------
 SWI2 INPUT READ FROM UNIT 29


 # SWI2 package for MODFLOW-2005 generated by Flopy 3.9.3
 # Dataset 1


 SWI2 DATASET 1
 ----------------------------------------------------
 NUMBER OF SURFACES (NSRF):                         1
 TOTAL NUMBER OF ZONES:                             2
 DENSITY DISTRIBUTION OPTION (ISTRAT):              0
   VARIABLE DENSITY FLOW -- ISTRAT = 0
   STRATIFIED FLOW       -- ISTRAT = 1
 NUMBER OF SWI OBSERVATIONS (NOBS):                 0
 ZETA OUTPUT FILE UNIT NUMBER (ISWIZT):             0
 BUDGET OUTPUT FILE UNIT NUMBER (ISWICB):           0
 OBSERVATION OUTPUT FILE UNIT NUMBER (ISWIOBS):     0
 ----------------------------------------------------
 # Dataset 2a


 SWI2 DATASET 2A
 ----------------------------------------------------
 SOLVER (NSOLVER):                                  2
   SOLVER =  PRECONDITIONED CONJUGATE GRADIENT (PCG)
 SOLVER PRINTOUT INTERVAL (IPRSOL):               999
 SOLVER OUTPUT FLAG (MUTSOL):                       3
   0 = PRINTING EVERY ITERATION
   1 = LIMITED (TOTAL NUMBER OF ITERATIONS)
   2 = NO PRINTING
   3 = ONLY IF CONVERGENCE FAILS
 ----------------------------------------------------
 # Dataset 2b


 SWI2 DATASET 2B
 PRECONDITIONED CONJUGATE GRADIENT PARAMETERS
 ----------------------------------------------------
 MAXIMUM NUMBER OF CALLS TO PCG (MXITER):         500
 MAXIMUM ITERATIONS PER CALL TO PCG (ITER1):      100
 MATRIX PRECONDITIONING TYPE (NPCOND):              1
   1 = MODIFIED INCOMPLETE CHOLESKY
   2 = NEUMANN POLYNOMIAL - THE MATRIX WILL BE SCALED
 ZETA CLOSURE CRITERION (ZCLOSE):         0.10000E-02
 RESIDUAL CLOSURE CRITERION (RCLOSE):     0.10000E-01
 RELAXATION FACTOR (RELAX):                1.0000    
   ONLY USED WITH NPCOND = 1
 POLYNOMIAL PRECONDITIONER PARAMETER (NBPOL):       2
   INTERNALLY CALCULATED IF NPCOND.NE.2
 STEADY-STATE DAMPING (DAMPPCG):           1.0000    
 TRANSIENT DAMPING (DAMPPCGT):             1.0000    
 ----------------------------------------------------
 # Dataset 3a


 SWI2 DATASET 3A
 ----------------------------------------------------
 MAXIMUM TOE SURFACE SLOPE (TOESLOPE):      0.500E-01
 MAXIMUM TIP SURFACE SLOPE (TIPSLOPE):      0.500E-01
 EXCESS SURFACE SLOPE FRACTION (ALPHA):     0.100    
 MINIMUM ZONE THICKNESS FRACTION (BETA):    0.100    
 ----------------------------------------------------



                              NUSRF
 READING ON UNIT   29 WITH FORMAT: (3E15.6)            



                   ZETA SURFACE  1  FOR LAYER   1
 READING ON UNIT   29 WITH FORMAT: (50E15.6)           

                      SSZ =  0.200000     FOR LAYER   1



                            IZONENR FOR LAYER   1
 READING ON UNIT   29 WITH FORMAT: (50I10)             
1
                            STRESS PERIOD NO.    1, LENGTH =   1.000000    
                            -----------------------------------------------

                              NUMBER OF TIME STEPS =     1

                               MULTIPLIER FOR DELT =     1.000

                            INITIAL TIME STEP SIZE =   1.000000    

      0 WELLS



                           RECHARGE
 READING ON UNIT   19 WITH FORMAT: (50E15.6)           
 
 SOLVING FOR HEAD 


     2 CALLS TO PCG ROUTINE FOR TIME STEP   1 IN STRESS PERIOD    1
     3 TOTAL ITERATIONS

 MAXIMUM HEAD CHANGE FOR EACH ITERATION (1 INDICATES THE FIRST INNER ITERATION):

    HEAD CHANGE    HEAD CHANGE    HEAD CHANGE    HEAD CHANGE    HEAD CHANGE 
   LAYER,ROW,COL  LAYER,ROW,COL  LAYER,ROW,COL  LAYER,ROW,COL  LAYER,ROW,COL
 ---------------------------------------------------------------------------
  1   7.157      0   0.000      1  0.5588E-08
   (  1,  1,  2)  (  1,  1,  2)  (  1,  1,  1)

 MAXIMUM RESIDUAL FOR EACH ITERATION (1 INDICATES THE FIRST INNER ITERATION):

    RESIDUAL       RESIDUAL       RESIDUAL       RESIDUAL       RESIDUAL    
   LAYER,ROW,COL  LAYER,ROW,COL  LAYER,ROW,COL  LAYER,ROW,COL  LAYER,ROW,COL
 ---------------------------------------------------------------------------
  1   0.000      0   0.000      1   0.000    
   (***, 48,  1)  (***, 48,  1)  (***, 48,  1)



 OUTPUT CONTROL FOR STRESS PERIOD    1   TIME STEP    1
    SAVE HEAD FOR ALL LAYERS
    SAVE BUDGET
 SOLVING FOR ZETA FOR LAYER     1 ZONE     2


                      VOLUMETRIC SWI ZONE BUDGET FOR ENTIRE MODEL
                     AT END OF TIME STEP    1 IN STRESS PERIOD   1
                                      ZONE     1
  -----------------------------------------------------------------------------------

        CUMULATIVE VOLUMES      L**3       RATES FOR THIS TIME STEP      L**3/T
        ------------------                 ------------------------

              IN:                                      IN:
              ---                                      ---
             BOUNDARIES =           2.4500            BOUNDARIES =           2.4500
          CONSTANT HEAD =           0.0000         CONSTANT HEAD =           0.0000
            ZONE CHANGE =           2.3364           ZONE CHANGE =           2.3364
       ZONE CHG TIP/TOE =           0.0000      ZONE CHG TIP/TOE =           0.0000
            ZONE MIXING =           0.0000           ZONE MIXING =           0.0000

               TOTAL IN =           4.7864              TOTAL IN =           4.7864

             OUT:                                     OUT:
             ----                                     ----
             BOUNDARIES =           0.0000            BOUNDARIES =           0.0000
          CONSTANT HEAD =           2.4500         CONSTANT HEAD =           2.4500
            ZONE CHANGE =           2.3364           ZONE CHANGE =           2.3364
       ZONE CHG TIP/TOE =           0.0000      ZONE CHG TIP/TOE =           0.0000
            ZONE MIXING =           0.0000           ZONE MIXING =           0.0000

              TOTAL OUT =           4.7864             TOTAL OUT =           4.7864

               IN - OUT =      -2.8610E-06              IN - OUT =      -2.8610E-06

    PERCENT DISCREPANCY =          -0.00     PERCENT DISCREPANCY =          -0.00



                      VOLUMETRIC SWI ZONE BUDGET FOR ENTIRE MODEL
                     AT END OF TIME STEP    1 IN STRESS PERIOD   1
                                      ZONE     2
  -----------------------------------------------------------------------------------

        CUMULATIVE VOLUMES      L**3       RATES FOR THIS TIME STEP      L**3/T
        ------------------                 ------------------------

              IN:                                      IN:
              ---                                      ---
             BOUNDARIES =           0.0000            BOUNDARIES =           0.0000
          CONSTANT HEAD =           0.0000         CONSTANT HEAD =           0.0000
            ZONE CHANGE =           2.3364           ZONE CHANGE =           2.3364
       ZONE CHG TIP/TOE =           0.0000      ZONE CHG TIP/TOE =           0.0000
            ZONE MIXING =           0.0000           ZONE MIXING =           0.0000

               TOTAL IN =           2.3364              TOTAL IN =           2.3364

             OUT:                                     OUT:
             ----                                     ----
             BOUNDARIES =           0.0000            BOUNDARIES =           0.0000
          CONSTANT HEAD =           0.0000         CONSTANT HEAD =           0.0000
            ZONE CHANGE =           2.3364           ZONE CHANGE =           2.3364
       ZONE CHG TIP/TOE =           0.0000      ZONE CHG TIP/TOE =           0.0000
            ZONE MIXING =           0.0000           ZONE MIXING =           0.0000

              TOTAL OUT =           2.3364             TOTAL OUT =           2.3364

               IN - OUT =       2.8610E-06              IN - OUT =       2.8610E-06

    PERCENT DISCREPANCY =           0.00     PERCENT DISCREPANCY =           0.00


 HEAD WILL BE SAVED ON UNIT   51 AT END OF TIME STEP    1, STRESS PERIOD    1
1
  VOLUMETRIC BUDGET FOR ENTIRE MODEL AT END OF TIME STEP    1, STRESS PERIOD   1
  ------------------------------------------------------------------------------

     CUMULATIVE VOLUMES      L**3       RATES FOR THIS TIME STEP      L**3/T
     ------------------                 ------------------------

           IN:                                      IN:
           ---                                      ---
             STORAGE =           0.0000               STORAGE =           0.0000
       CONSTANT HEAD =           0.0000         CONSTANT HEAD =           0.0000
          SWIADDTOCH =           0.0000            SWIADDTOCH =           0.0000
               WELLS =           0.0000                 WELLS =           0.0000
            RECHARGE =           2.4500              RECHARGE =           2.4500

            TOTAL IN =           2.4500              TOTAL IN =           2.4500

          OUT:                                     OUT:
          ----                                     ----
             STORAGE =           0.0000               STORAGE =           0.0000
       CONSTANT HEAD =           1.1828         CONSTANT HEAD =           1.1828
          SWIADDTOCH =           1.2672            SWIADDTOCH =           1.2672
               WELLS =           0.0000                 WELLS =           0.0000
            RECHARGE =           0.0000              RECHARGE =           0.0000

           TOTAL OUT =           2.4500             TOTAL OUT =           2.4500

            IN - OUT =           0.0000              IN - OUT =           0.0000

 PERCENT DISCREPANCY =           0.00     PERCENT DISCREPANCY =           0.00






         TIME SUMMARY AT END OF TIME STEP    1 IN STRESS PERIOD    1
                    SECONDS     MINUTES      HOURS       DAYS        YEARS
                    -----------------------------------------------------------
   TIME STEP LENGTH  86400.      1440.0      24.000      1.0000     2.73785E-03
 STRESS PERIOD TIME  86400.      1440.0      24.000      1.0000     2.73785E-03
         TOTAL TIME  86400.      1440.0      24.000      1.0000     2.73785E-03
1
1
                            STRESS PERIOD NO.    2, LENGTH =   3650.000    
                            -----------------------------------------------

                              NUMBER OF TIME STEPS =   100

                               MULTIPLIER FOR DELT =     1.000

                            INITIAL TIME STEP SIZE =   36.50000    

 WELL NO.  LAYER   ROW   COL   STRESS RATE         
 --------------------------------------------------
      1      1      1     41      -10.00    

      1 WELL 

 REUSING RECH FROM LAST STRESS PERIOD
 
 SOLVING FOR HEAD 


     2 CALLS TO PCG ROUTINE FOR TIME STEP   1 IN STRESS PERIOD    2
     3 TOTAL ITERATIONS

 MAXIMUM HEAD CHANGE FOR EACH ITERATION (1 INDICATES THE FIRST INNER ITERATION):

    HEAD CHANGE    HEAD CHANGE    HEAD CHANGE    HEAD CHANGE    HEAD CHANGE 
   LAYER,ROW,COL  LAYER,ROW,COL  LAYER,ROW,COL  LAYER,ROW,COL  LAYER,ROW,COL
 ---------------------------------------------------------------------------
  1  -10.96      0 -0.8878E-04  1 -0.4748E-08
   (  1,  1, 41)  (  1,  1,  1)  (  1,  1, 41)

 MAXIMUM RESIDUAL FOR EACH ITERATION (1 INDICATES THE FIRST INNER ITERATION):

    RESIDUAL       RESIDUAL       RESIDUAL       RESIDUAL       RESIDUAL    
   LAYER,ROW,COL  LAYER,ROW,COL  LAYER,ROW,COL  LAYER,ROW,COL  LAYER,ROW,COL
 ---------------------------------------------------------------------------
  1 -0.2925E-04  0 -0.2653E-10  1 -0.1275E-13
   (  1,  1, 41)  (  1,  1, 40)  (  1,  1, 41)



 NO OUTPUT CONTROL FOR STRESS PERIOD    2   TIME STEP    1
 SOLVING FOR ZETA FOR LAYER     1 ZONE     2
 
 SOLVING FOR HEAD 
     2 CALLS TO PCG ROUTINE FOR TIME STEP   2 IN STRESS PERIOD    2
     3 TOTAL ITERATIONS

 MAXIMUM HEAD CHANGE FOR EACH ITERATION (1 INDICATES THE FIRST INNER ITERATION):

    HEAD CHANGE    HEAD CHANGE    HEAD CHANGE    HEAD CHANGE    HEAD CHANGE 
   LAYER,ROW,COL  LAYER,ROW,COL  LAYER,ROW,COL  LAYER,ROW,COL  LAYER,ROW,COL
 ---------------------------------------------------------------------------
  1 -0.8858      0 -0.2485E-05  1  0.6344E-08
   (  1,  1,  1)  (  1,  1,  1)  (  1,  1, 40)

 MAXIMUM RESIDUAL FOR EACH ITERATION (1 INDICATES THE FIRST INNER ITERATION):

    RESIDUAL       RESIDUAL       RESIDUAL       RESIDUAL       RESIDUAL    
   LAYER,ROW,COL  LAYER,ROW,COL  LAYER,ROW,COL  LAYER,ROW,COL  LAYER,ROW,COL
 ---------------------------------------------------------------------------
  1  0.3176E-05  0 -0.9467E-12  1 -0.1681E-13
   (  1,  1, 49)  (  1,  1, 49)  (  1,  1, 48)



 NO OUTPUT CONTROL FOR STRESS PERIOD    2   TIME STEP    2
 SOLVING FOR ZETA FOR LAYER     1 ZONE     2
 
 SOLVING FOR HEAD 
     2 CALLS TO PCG ROUTINE FOR TIME STEP   3 IN STRESS PERIOD    2
     3 TOTAL ITERATIONS

 MAXIMUM HEAD CHANGE FOR EACH ITERATION (1 INDICATES THE FIRST INNER ITERATION):

    HEAD CHANGE    HEAD CHANGE    HEAD CHANGE    HEAD CHANGE    HEAD CHANGE 
   LAYER,ROW,COL  LAYER,ROW,COL  LAYER,ROW,COL  LAYER,ROW,COL  LAYER,ROW,COL
 ---------------------------------------------------------------------------
  1  0.1178      0 -0.1826E-06  1 -0.1384E-08
   (  1,  1, 49)  (  1,  1,  1)  (  1,  1, 47)

 MAXIMUM RESIDUAL FOR EACH ITERATION (1 INDICATES THE FIRST INNER ITERATION):

    RESIDUAL       RESIDUAL       RESIDUAL       RESIDUAL       RESIDUAL    
   LAYER,ROW,COL  LAYER,ROW,COL  LAYER,ROW,COL  LAYER,ROW,COL  LAYER,ROW,COL
 ---------------------------------------------------------------------------
  1  0.3406E-07  0  0.2424E-12  1 -0.4656E-14
   (  1,  1, 49)  (  1,  1, 48)  (  1,  1, 47)



 NO OUTPUT CONTROL FOR STRESS PERIOD    2   TIME STEP    3
 SOLVING FOR ZETA FOR LAYER     1 ZONE     2
 
 SOLVING FOR HEAD 
     2 CALLS TO PCG ROUTINE FOR TIME STEP   4 IN STRESS PERIOD    2
     3 TOTAL ITERATIONS

 MAXIMUM HEAD CHANGE FOR EACH ITERATION (1 INDICATES THE FIRST INNER ITERATION):

    HEAD CHANGE    HEAD CHANGE    HEAD CHANGE    HEAD CHANGE    HEAD CHANGE 
   LAYER,ROW,COL  LAYER,ROW,COL  LAYER,ROW,COL  LAYER,ROW,COL  LAYER,ROW,COL
 ---------------------------------------------------------------------------
  1 -0.4285E-01  0 -0.4599E-06  1  0.2745E-08
   (  1,  1, 44)  (  1,  1,  1)  (  1,  1, 44)

 MAXIMUM RESIDUAL FOR EACH ITERATION (1 INDICATES THE FIRST INNER ITERATION):

    RESIDUAL       RESIDUAL       RESIDUAL       RESIDUAL       RESIDUAL    
   LAYER,ROW,COL  LAYER,ROW,COL  LAYER,ROW,COL  LAYER,ROW,COL  LAYER,ROW,COL
 ---------------------------------------------------------------------------
  1  0.8136E-07  0 -0.1201E-12  1  0.7176E-14
   (  1,  1, 49)  (  1,  1, 40)  (  1,  1, 44)



 NO OUTPUT CONTROL FOR STRESS PERIOD    2   TIME STEP    4
 SOLVING FOR ZETA FOR LAYER     1 ZONE     2
 
 SOLVING FOR HEAD 
     2 CALLS TO PCG ROUTINE FOR TIME STEP   5 IN STRESS PERIOD    2
     3 TOTAL ITERATIONS

 MAXIMUM HEAD CHANGE FOR EACH ITERATION (1 INDICATES THE FIRST INNER ITERATION):

    HEAD CHANGE    HEAD CHANGE    HEAD CHANGE    HEAD CHANGE    HEAD CHANGE 
   LAYER,ROW,COL  LAYER,ROW,COL  LAYER,ROW,COL  LAYER,ROW,COL  LAYER,ROW,COL
 ---------------------------------------------------------------------------
  1  0.9351E-01  0  0.2842E-06  1 -0.1547E-07
   (  1,  1, 48)  (  1,  1,  1)  (  1,  1, 42)

 MAXIMUM RESIDUAL FOR EACH ITERATION (1 INDICATES THE FIRST INNER ITERATION):

    RESIDUAL       RESIDUAL       RESIDUAL       RESIDUAL       RESIDUAL    
   LAYER,ROW,COL  LAYER,ROW,COL  LAYER,ROW,COL  LAYER,ROW,COL  LAYER,ROW,COL
 ---------------------------------------------------------------------------
  1 -0.5285E-07  0  0.3353E-12  1 -0.5984E-13
   (  1,  1, 49)  (  1,  1, 49)  (  1,  1, 49)



 NO OUTPUT CONTROL FOR STRESS PERIOD    2   TIME STEP    5
 SOLVING FOR ZETA FOR LAYER     1 ZONE     2
 
 SOLVING FOR HEAD 
     2 CALLS TO PCG ROUTINE FOR TIME STEP   6 IN STRESS PERIOD    2
     3 TOTAL ITERATIONS

 MAXIMUM HEAD CHANGE FOR EACH ITERATION (1 INDICATES THE FIRST INNER ITERATION):

    HEAD CHANGE    HEAD CHANGE    HEAD CHANGE    HEAD CHANGE    HEAD CHANGE 
   LAYER,ROW,COL  LAYER,ROW,COL  LAYER,ROW,COL  LAYER,ROW,COL  LAYER,ROW,COL
 ---------------------------------------------------------------------------
  1 -0.5681E-01  0 -0.2266E-06  1 -0.1456E-07
   (  1,  1, 42)  (  1,  1,  1)  (  1,  1, 42)

 MAXIMUM RESIDUAL FOR EACH ITERATION (1 INDICATES THE FIRST INNER ITERATION):

    RESIDUAL       RESIDUAL       RESIDUAL       RESIDUAL       RESIDUAL    
   LAYER,ROW,COL  LAYER,ROW,COL  LAYER,ROW,COL  LAYER,ROW,COL  LAYER,ROW,COL
 ---------------------------------------------------------------------------
  1 -0.3129E-07  0  0.1783E-12  1 -0.4244E-13
   (  1,  1, 42)  (  1,  1, 42)  (  1,  1, 42)



 NO OUTPUT CONTROL FOR STRESS PERIOD    2   TIME STEP    6
 SOLVING FOR ZETA FOR LAYER     1 ZONE     2
 
 SOLVING FOR HEAD 
     2 CALLS TO PCG ROUTINE FOR TIME STEP   7 IN STRESS PERIOD    2
     3 TOTAL ITERATIONS

 MAXIMUM HEAD CHANGE FOR EACH ITERATION (1 INDICATES THE FIRST INNER ITERATION):

    HEAD CHANGE    HEAD CHANGE    HEAD CHANGE    HEAD CHANGE    HEAD CHANGE 
   LAYER,ROW,COL  LAYER,ROW,COL  LAYER,ROW,COL  LAYER,ROW,COL  LAYER,ROW,COL
 ---------------------------------------------------------------------------
  1  0.8479E-01  0  0.1970E-07  1  0.7404E-08
   (  1,  1, 47)  (  1,  1, 44)  (  1,  1, 48)

 MAXIMUM RESIDUAL FOR EACH ITERATION (1 INDICATES THE FIRST INNER ITERATION):

    RESIDUAL       RESIDUAL       RESIDUAL       RESIDUAL       RESIDUAL    
   LAYER,ROW,COL  LAYER,ROW,COL  LAYER,ROW,COL  LAYER,ROW,COL  LAYER,ROW,COL
 ---------------------------------------------------------------------------
  1 -0.2588E-07  0  0.3490E-13  1  0.2622E-13
   (  1,  1, 48)  (  1,  1, 48)  (  1,  1, 48)



 NO OUTPUT CONTROL FOR STRESS PERIOD    2   TIME STEP    7
 SOLVING FOR ZETA FOR LAYER     1 ZONE     2
 
 SOLVING FOR HEAD 
     2 CALLS TO PCG ROUTINE FOR TIME STEP   8 IN STRESS PERIOD    2
     3 TOTAL ITERATIONS

 MAXIMUM HEAD CHANGE FOR EACH ITERATION (1 INDICATES THE FIRST INNER ITERATION):

    HEAD CHANGE    HEAD CHANGE    HEAD CHANGE    HEAD CHANGE    HEAD CHANGE 
   LAYER,ROW,COL  LAYER,ROW,COL  LAYER,ROW,COL  LAYER,ROW,COL  LAYER,ROW,COL
 ---------------------------------------------------------------------------
  1  0.9666E-01  0  0.1942E-06  1 -0.2944E-07
   (  1,  1, 46)  (  1,  1,  1)  (  1,  1, 46)

 MAXIMUM RESIDUAL FOR EACH ITERATION (1 INDICATES THE FIRST INNER ITERATION):

    RESIDUAL       RESIDUAL       RESIDUAL       RESIDUAL       RESIDUAL    
   LAYER,ROW,COL  LAYER,ROW,COL  LAYER,ROW,COL  LAYER,ROW,COL  LAYER,ROW,COL
 ---------------------------------------------------------------------------
  1 -0.3347E-07  0  0.2230E-12  1 -0.9314E-13
   (  1,  1, 47)  (  1,  1, 47)  (  1,  1, 46)



 NO OUTPUT CONTROL FOR STRESS PERIOD    2   TIME STEP    8
 SOLVING FOR ZETA FOR LAYER     1 ZONE     2
 
 SOLVING FOR HEAD 
     2 CALLS TO PCG ROUTINE FOR TIME STEP   9 IN STRESS PERIOD    2
     3 TOTAL ITERATIONS

 MAXIMUM HEAD CHANGE FOR EACH ITERATION (1 INDICATES THE FIRST INNER ITERATION):

    HEAD CHANGE    HEAD CHANGE    HEAD CHANGE    HEAD CHANGE    HEAD CHANGE 
   LAYER,ROW,COL  LAYER,ROW,COL  LAYER,ROW,COL  LAYER,ROW,COL  LAYER,ROW,COL
 ---------------------------------------------------------------------------
  1 -0.4469E-01  0 -0.1187E-06  1 -0.4480E-12
   (  1,  1, 42)  (  1,  1,  1)  (  1,  1,  1)

 MAXIMUM RESIDUAL FOR EACH ITERATION (1 INDICATES THE FIRST INNER ITERATION):

    RESIDUAL       RESIDUAL       RESIDUAL       RESIDUAL       RESIDUAL    
   LAYER,ROW,COL  LAYER,ROW,COL  LAYER,ROW,COL  LAYER,ROW,COL  LAYER,ROW,COL
 ---------------------------------------------------------------------------
  1 -0.1911E-07  0  0.1190E-12  1 -0.8368E-18
   (  1,  1, 42)  (  1,  1, 42)  (  1,  1, 42)



 NO OUTPUT CONTROL FOR STRESS PERIOD    2   TIME STEP    9
 SOLVING FOR ZETA FOR LAYER     1 ZONE     2
 
 SOLVING FOR HEAD 
     2 CALLS TO PCG ROUTINE FOR TIME STEP  10 IN STRESS PERIOD    2
     3 TOTAL ITERATIONS

 MAXIMUM HEAD CHANGE FOR EACH ITERATION (1 INDICATES THE FIRST INNER ITERATION):

    HEAD CHANGE    HEAD CHANGE    HEAD CHANGE    HEAD CHANGE    HEAD CHANGE 
   LAYER,ROW,COL  LAYER,ROW,COL  LAYER,ROW,COL  LAYER,ROW,COL  LAYER,ROW,COL
 ---------------------------------------------------------------------------
  1  0.8257E-01  0  0.1822E-07  1  0.7360E-08
   (  1,  1, 45)  (  1,  1, 44)  (  1,  1, 46)

 MAXIMUM RESIDUAL FOR EACH ITERATION (1 INDICATES THE FIRST INNER ITERATION):

    RESIDUAL       RESIDUAL       RESIDUAL       RESIDUAL       RESIDUAL    
   LAYER,ROW,COL  LAYER,ROW,COL  LAYER,ROW,COL  LAYER,ROW,COL  LAYER,ROW,COL
 ---------------------------------------------------------------------------
  1 -0.2812E-07  0  0.5026E-14  1  0.2328E-13
   (  1,  1, 46)  (  1,  1, 37)  (  1,  1, 46)



 NO OUTPUT CONTROL FOR STRESS PERIOD    2   TIME STEP   10
 SOLVING FOR ZETA FOR LAYER     1 ZONE     2
 
 SOLVING FOR HEAD 
     2 CALLS TO PCG ROUTINE FOR TIME STEP  11 IN STRESS PERIOD    2
     3 TOTAL ITERATIONS

 MAXIMUM HEAD CHANGE FOR EACH ITERATION (1 INDICATES THE FIRST INNER ITERATION):

    HEAD CHANGE    HEAD CHANGE    HEAD CHANGE    HEAD CHANGE    HEAD CHANGE 
   LAYER,ROW,COL  LAYER,ROW,COL  LAYER,ROW,COL  LAYER,ROW,COL  LAYER,ROW,COL
 ---------------------------------------------------------------------------
  1  0.1108      0  0.2196E-06  1  0.9174E-08
   (  1,  1, 44)  (  1,  1,  1)  (  1,  1, 45)

 MAXIMUM RESIDUAL FOR EACH ITERATION (1 INDICATES THE FIRST INNER ITERATION):

    RESIDUAL       RESIDUAL       RESIDUAL       RESIDUAL       RESIDUAL    
   LAYER,ROW,COL  LAYER,ROW,COL  LAYER,ROW,COL  LAYER,ROW,COL  LAYER,ROW,COL
 ---------------------------------------------------------------------------
  1 -0.3505E-07  0  0.2416E-12  1  0.2679E-13
   (  1,  1, 45)  (  1,  1, 45)  (  1,  1, 45)



 NO OUTPUT CONTROL FOR STRESS PERIOD    2   TIME STEP   11
 SOLVING FOR ZETA FOR LAYER     1 ZONE     2
 
 SOLVING FOR HEAD 
     2 CALLS TO PCG ROUTINE FOR TIME STEP  12 IN STRESS PERIOD    2
     3 TOTAL ITERATIONS

 MAXIMUM HEAD CHANGE FOR EACH ITERATION (1 INDICATES THE FIRST INNER ITERATION):

    HEAD CHANGE    HEAD CHANGE    HEAD CHANGE    HEAD CHANGE    HEAD CHANGE 
   LAYER,ROW,COL  LAYER,ROW,COL  LAYER,ROW,COL  LAYER,ROW,COL  LAYER,ROW,COL
 ---------------------------------------------------------------------------
  1  0.8899E-01  0  0.1446E-06  1  0.4955E-08
   (  1,  1, 43)  (  1,  1,  1)  (  1,  1, 38)

 MAXIMUM RESIDUAL FOR EACH ITERATION (1 INDICATES THE FIRST INNER ITERATION):

    RESIDUAL       RESIDUAL       RESIDUAL       RESIDUAL       RESIDUAL    
   LAYER,ROW,COL  LAYER,ROW,COL  LAYER,ROW,COL  LAYER,ROW,COL  LAYER,ROW,COL
 ---------------------------------------------------------------------------
  1  0.1702E-07  0 -0.1843E-12  1  0.1088E-13
   (  1,  1, 41)  (  1,  1, 41)  (  1,  1, 45)



 NO OUTPUT CONTROL FOR STRESS PERIOD    2   TIME STEP   12
 SOLVING FOR ZETA FOR LAYER     1 ZONE     2
 
 SOLVING FOR HEAD 
     2 CALLS TO PCG ROUTINE FOR TIME STEP  13 IN STRESS PERIOD    2
     3 TOTAL ITERATIONS

 MAXIMUM HEAD CHANGE FOR EACH ITERATION (1 INDICATES THE FIRST INNER ITERATION):

    HEAD CHANGE    HEAD CHANGE    HEAD CHANGE    HEAD CHANGE    HEAD CHANGE 
   LAYER,ROW,COL  LAYER,ROW,COL  LAYER,ROW,COL  LAYER,ROW,COL  LAYER,ROW,COL
 ---------------------------------------------------------------------------
  1 -0.5472E-01  0 -0.4873E-06  1  0.5489E-08
   (  1,  1, 41)  (  1,  1,  1)  (  1,  1, 44)

 MAXIMUM RESIDUAL FOR EACH ITERATION (1 INDICATES THE FIRST INNER ITERATION):

    RESIDUAL       RESIDUAL       RESIDUAL       RESIDUAL       RESIDUAL    
   LAYER,ROW,COL  LAYER,ROW,COL  LAYER,ROW,COL  LAYER,ROW,COL  LAYER,ROW,COL
 ---------------------------------------------------------------------------
  1  0.7774E-07  0 -0.1390E-12  1  0.1435E-13
   (  1,  1, 43)  (  1,  1, 40)  (  1,  1, 44)



 NO OUTPUT CONTROL FOR STRESS PERIOD    2   TIME STEP   13
 SOLVING FOR ZETA FOR LAYER     1 ZONE     2
 
 SOLVING FOR HEAD 
     2 CALLS TO PCG ROUTINE FOR TIME STEP  14 IN STRESS PERIOD    2
     3 TOTAL ITERATIONS

 MAXIMUM HEAD CHANGE FOR EACH ITERATION (1 INDICATES THE FIRST INNER ITERATION):

    HEAD CHANGE    HEAD CHANGE    HEAD CHANGE    HEAD CHANGE    HEAD CHANGE 
   LAYER,ROW,COL  LAYER,ROW,COL  LAYER,ROW,COL  LAYER,ROW,COL  LAYER,ROW,COL
 ---------------------------------------------------------------------------
  1  0.1057      0  0.1618E-06  1 -0.1277E-07
   (  1,  1, 42)  (  1,  1,  1)  (  1,  1, 43)

 MAXIMUM RESIDUAL FOR EACH ITERATION (1 INDICATES THE FIRST INNER ITERATION):

    RESIDUAL       RESIDUAL       RESIDUAL       RESIDUAL       RESIDUAL    
   LAYER,ROW,COL  LAYER,ROW,COL  LAYER,ROW,COL  LAYER,ROW,COL  LAYER,ROW,COL
 ---------------------------------------------------------------------------
  1 -0.9417E-08  0 -0.9668E-13  1 -0.4058E-13
   (  1,  1, 40)  (  1,  1, 43)  (  1,  1, 43)



 NO OUTPUT CONTROL FOR STRESS PERIOD    2   TIME STEP   14
 SOLVING FOR ZETA FOR LAYER     1 ZONE     2
 
 SOLVING FOR HEAD 
     2 CALLS TO PCG ROUTINE FOR TIME STEP  15 IN STRESS PERIOD    2
     3 TOTAL ITERATIONS

 MAXIMUM HEAD CHANGE FOR EACH ITERATION (1 INDICATES THE FIRST INNER ITERATION):

    HEAD CHANGE    HEAD CHANGE    HEAD CHANGE    HEAD CHANGE    HEAD CHANGE 
   LAYER,ROW,COL  LAYER,ROW,COL  LAYER,ROW,COL  LAYER,ROW,COL  LAYER,ROW,COL
 ---------------------------------------------------------------------------
  1  0.2485      0  0.2621E-05  1 -0.1047E-07
   (  1,  1, 39)  (  1,  1,  1)  (  1,  1, 42)

 MAXIMUM RESIDUAL FOR EACH ITERATION (1 INDICATES THE FIRST INNER ITERATION):

    RESIDUAL       RESIDUAL       RESIDUAL       RESIDUAL       RESIDUAL    
   LAYER,ROW,COL  LAYER,ROW,COL  LAYER,ROW,COL  LAYER,ROW,COL  LAYER,ROW,COL
 ---------------------------------------------------------------------------
  1  0.6948E-06  0 -0.5736E-12  1 -0.2162E-13
   (  1,  1, 41)  (  1,  1, 37)  (  1,  1, 42)



 NO OUTPUT CONTROL FOR STRESS PERIOD    2   TIME STEP   15
 SOLVING FOR ZETA FOR LAYER     1 ZONE     2
 
 SOLVING FOR HEAD 
     2 CALLS TO PCG ROUTINE FOR TIME STEP  16 IN STRESS PERIOD    2
     3 TOTAL ITERATIONS

 MAXIMUM HEAD CHANGE FOR EACH ITERATION (1 INDICATES THE FIRST INNER ITERATION):

    HEAD CHANGE    HEAD CHANGE    HEAD CHANGE    HEAD CHANGE    HEAD CHANGE 
   LAYER,ROW,COL  LAYER,ROW,COL  LAYER,ROW,COL  LAYER,ROW,COL  LAYER,ROW,COL
 ---------------------------------------------------------------------------
  1 -0.2414      0 -0.2489E-05  1  0.7281E-08
   (  1,  1, 38)  (  1,  1,  1)  (  1,  1, 42)

 MAXIMUM RESIDUAL FOR EACH ITERATION (1 INDICATES THE FIRST INNER ITERATION):

    RESIDUAL       RESIDUAL       RESIDUAL       RESIDUAL       RESIDUAL    
   LAYER,ROW,COL  LAYER,ROW,COL  LAYER,ROW,COL  LAYER,ROW,COL  LAYER,ROW,COL
 ---------------------------------------------------------------------------
  1  0.5961E-06  0 -0.5677E-12  1  0.2122E-13
   (  1,  1, 42)  (  1,  1, 40)  (  1,  1, 42)



 NO OUTPUT CONTROL FOR STRESS PERIOD    2   TIME STEP   16
 SOLVING FOR ZETA FOR LAYER     1 ZONE     2
 
 SOLVING FOR HEAD 
     2 CALLS TO PCG ROUTINE FOR TIME STEP  17 IN STRESS PERIOD    2
     3 TOTAL ITERATIONS

 MAXIMUM HEAD CHANGE FOR EACH ITERATION (1 INDICATES THE FIRST INNER ITERATION):

    HEAD CHANGE    HEAD CHANGE    HEAD CHANGE    HEAD CHANGE    HEAD CHANGE 
   LAYER,ROW,COL  LAYER,ROW,COL  LAYER,ROW,COL  LAYER,ROW,COL  LAYER,ROW,COL
 ---------------------------------------------------------------------------
  1  0.2494      0  0.2541E-05  1  0.6483E-12
   (  1,  1, 39)  (  1,  1,  1)  (  1,  1,  1)

 MAXIMUM RESIDUAL FOR EACH ITERATION (1 INDICATES THE FIRST INNER ITERATION):

    RESIDUAL       RESIDUAL       RESIDUAL       RESIDUAL       RESIDUAL    
   LAYER,ROW,COL  LAYER,ROW,COL  LAYER,ROW,COL  LAYER,ROW,COL  LAYER,ROW,COL
 ---------------------------------------------------------------------------
  1 -0.6143E-06  0 -0.5850E-12  1  0.4672E-18
   (  1,  1, 42)  (  1,  1, 37)  (  1,  1, 37)



 NO OUTPUT CONTROL FOR STRESS PERIOD    2   TIME STEP   17
 SOLVING FOR ZETA FOR LAYER     1 ZONE     2
 
 SOLVING FOR HEAD 
     2 CALLS TO PCG ROUTINE FOR TIME STEP  18 IN STRESS PERIOD    2
     3 TOTAL ITERATIONS

 MAXIMUM HEAD CHANGE FOR EACH ITERATION (1 INDICATES THE FIRST INNER ITERATION):

    HEAD CHANGE    HEAD CHANGE    HEAD CHANGE    HEAD CHANGE    HEAD CHANGE 
   LAYER,ROW,COL  LAYER,ROW,COL  LAYER,ROW,COL  LAYER,ROW,COL  LAYER,ROW,COL
 ---------------------------------------------------------------------------
  1 -0.2447      0 -0.2524E-05  1 -0.5705E-12
   (  1,  1, 38)  (  1,  1,  1)  (  1,  1,  1)

 MAXIMUM RESIDUAL FOR EACH ITERATION (1 INDICATES THE FIRST INNER ITERATION):

    RESIDUAL       RESIDUAL       RESIDUAL       RESIDUAL       RESIDUAL    
   LAYER,ROW,COL  LAYER,ROW,COL  LAYER,ROW,COL  LAYER,ROW,COL  LAYER,ROW,COL
 ---------------------------------------------------------------------------
  1  0.6114E-06  0  0.5739E-12  1 -0.4420E-18
   (  1,  1, 42)  (  1,  1, 37)  (  1,  1, 37)



 NO OUTPUT CONTROL FOR STRESS PERIOD    2   TIME STEP   18
 SOLVING FOR ZETA FOR LAYER     1 ZONE     2
 
 SOLVING FOR HEAD 
     2 CALLS TO PCG ROUTINE FOR TIME STEP  19 IN STRESS PERIOD    2
     3 TOTAL ITERATIONS

 MAXIMUM HEAD CHANGE FOR EACH ITERATION (1 INDICATES THE FIRST INNER ITERATION):

    HEAD CHANGE    HEAD CHANGE    HEAD CHANGE    HEAD CHANGE    HEAD CHANGE 
   LAYER,ROW,COL  LAYER,ROW,COL  LAYER,ROW,COL  LAYER,ROW,COL  LAYER,ROW,COL
 ---------------------------------------------------------------------------
  1  0.2523      0  0.2572E-05  1  0.4004E-07
   (  1,  1, 39)  (  1,  1,  1)  (  1,  1, 42)

 MAXIMUM RESIDUAL FOR EACH ITERATION (1 INDICATES THE FIRST INNER ITERATION):

    RESIDUAL       RESIDUAL       RESIDUAL       RESIDUAL       RESIDUAL    
   LAYER,ROW,COL  LAYER,ROW,COL  LAYER,ROW,COL  LAYER,ROW,COL  LAYER,ROW,COL
 ---------------------------------------------------------------------------
  1 -0.6272E-06  0 -0.5933E-12  1  0.1167E-12
   (  1,  1, 42)  (  1,  1, 37)  (  1,  1, 42)



 NO OUTPUT CONTROL FOR STRESS PERIOD    2   TIME STEP   19
 SOLVING FOR ZETA FOR LAYER     1 ZONE     2
 
 SOLVING FOR HEAD 
     2 CALLS TO PCG ROUTINE FOR TIME STEP  20 IN STRESS PERIOD    2
     3 TOTAL ITERATIONS

 MAXIMUM HEAD CHANGE FOR EACH ITERATION (1 INDICATES THE FIRST INNER ITERATION):

    HEAD CHANGE    HEAD CHANGE    HEAD CHANGE    HEAD CHANGE    HEAD CHANGE 
   LAYER,ROW,COL  LAYER,ROW,COL  LAYER,ROW,COL  LAYER,ROW,COL  LAYER,ROW,COL
 ---------------------------------------------------------------------------
  1 -0.2482      0 -0.2555E-05  1 -0.4004E-07
   (  1,  1, 38)  (  1,  1,  1)  (  1,  1, 42)

 MAXIMUM RESIDUAL FOR EACH ITERATION (1 INDICATES THE FIRST INNER ITERATION):

    RESIDUAL       RESIDUAL       RESIDUAL       RESIDUAL       RESIDUAL    
   LAYER,ROW,COL  LAYER,ROW,COL  LAYER,ROW,COL  LAYER,ROW,COL  LAYER,ROW,COL
 ---------------------------------------------------------------------------
  1  0.6251E-06  0  0.5823E-12  1 -0.1167E-12
   (  1,  1, 42)  (  1,  1, 37)  (  1,  1, 42)



 NO OUTPUT CONTROL FOR STRESS PERIOD    2   TIME STEP   20
 SOLVING FOR ZETA FOR LAYER     1 ZONE     2
 
 SOLVING FOR HEAD 
     2 CALLS TO PCG ROUTINE FOR TIME STEP  21 IN STRESS PERIOD    2
     3 TOTAL ITERATIONS

 MAXIMUM HEAD CHANGE FOR EACH ITERATION (1 INDICATES THE FIRST INNER ITERATION):

    HEAD CHANGE    HEAD CHANGE    HEAD CHANGE    HEAD CHANGE    HEAD CHANGE 
   LAYER,ROW,COL  LAYER,ROW,COL  LAYER,ROW,COL  LAYER,ROW,COL  LAYER,ROW,COL
 ---------------------------------------------------------------------------
  1  0.2556      0  0.2607E-05  1 -0.4004E-07
   (  1,  1, 39)  (  1,  1,  1)  (  1,  1, 42)

 MAXIMUM RESIDUAL FOR EACH ITERATION (1 INDICATES THE FIRST INNER ITERATION):

    RESIDUAL       RESIDUAL       RESIDUAL       RESIDUAL       RESIDUAL    
   LAYER,ROW,COL  LAYER,ROW,COL  LAYER,ROW,COL  LAYER,ROW,COL  LAYER,ROW,COL
 ---------------------------------------------------------------------------
  1 -0.6419E-06  0 -0.6028E-12  1 -0.1167E-12
   (  1,  1, 42)  (  1,  1, 37)  (  1,  1, 42)



 NO OUTPUT CONTROL FOR STRESS PERIOD    2   TIME STEP   21
 SOLVING FOR ZETA FOR LAYER     1 ZONE     2
 
 SOLVING FOR HEAD 
     2 CALLS TO PCG ROUTINE FOR TIME STEP  22 IN STRESS PERIOD    2
     3 TOTAL ITERATIONS

 MAXIMUM HEAD CHANGE FOR EACH ITERATION (1 INDICATES THE FIRST INNER ITERATION):

    HEAD CHANGE    HEAD CHANGE    HEAD CHANGE    HEAD CHANGE    HEAD CHANGE 
   LAYER,ROW,COL  LAYER,ROW,COL  LAYER,ROW,COL  LAYER,ROW,COL  LAYER,ROW,COL
 ---------------------------------------------------------------------------
  1 -0.2521      0 -0.2590E-05  1  0.4004E-07
   (  1,  1, 38)  (  1,  1,  1)  (  1,  1, 42)

 MAXIMUM RESIDUAL FOR EACH ITERATION (1 INDICATES THE FIRST INNER ITERATION):

    RESIDUAL       RESIDUAL       RESIDUAL       RESIDUAL       RESIDUAL    
   LAYER,ROW,COL  LAYER,ROW,COL  LAYER,ROW,COL  LAYER,ROW,COL  LAYER,ROW,COL
 ---------------------------------------------------------------------------
  1  0.6404E-06  0  0.5918E-12  1  0.1167E-12
   (  1,  1, 42)  (  1,  1, 37)  (  1,  1, 42)



 NO OUTPUT CONTROL FOR STRESS PERIOD    2   TIME STEP   22
 SOLVING FOR ZETA FOR LAYER     1 ZONE     2
 
 SOLVING FOR HEAD 
     2 CALLS TO PCG ROUTINE FOR TIME STEP  23 IN STRESS PERIOD    2
     3 TOTAL ITERATIONS

 MAXIMUM HEAD CHANGE FOR EACH ITERATION (1 INDICATES THE FIRST INNER ITERATION):

    HEAD CHANGE    HEAD CHANGE    HEAD CHANGE    HEAD CHANGE    HEAD CHANGE 
   LAYER,ROW,COL  LAYER,ROW,COL  LAYER,ROW,COL  LAYER,ROW,COL  LAYER,ROW,COL
 ---------------------------------------------------------------------------
  1  0.2592      0  0.2646E-05  1  0.9233E-12
   (  1,  1, 39)  (  1,  1,  1)  (  1,  1,  1)

 MAXIMUM RESIDUAL FOR EACH ITERATION (1 INDICATES THE FIRST INNER ITERATION):

    RESIDUAL       RESIDUAL       RESIDUAL       RESIDUAL       RESIDUAL    
   LAYER,ROW,COL  LAYER,ROW,COL  LAYER,ROW,COL  LAYER,ROW,COL  LAYER,ROW,COL
 ---------------------------------------------------------------------------
  1 -0.6581E-06  0 -0.6133E-12  1  0.7657E-18
   (  1,  1, 42)  (  1,  1, 37)  (  1,  1, 37)



 NO OUTPUT CONTROL FOR STRESS PERIOD    2   TIME STEP   23
 SOLVING FOR ZETA FOR LAYER     1 ZONE     2
 
 SOLVING FOR HEAD 
     2 CALLS TO PCG ROUTINE FOR TIME STEP  24 IN STRESS PERIOD    2
     3 TOTAL ITERATIONS

 MAXIMUM HEAD CHANGE FOR EACH ITERATION (1 INDICATES THE FIRST INNER ITERATION):

    HEAD CHANGE    HEAD CHANGE    HEAD CHANGE    HEAD CHANGE    HEAD CHANGE 
   LAYER,ROW,COL  LAYER,ROW,COL  LAYER,ROW,COL  LAYER,ROW,COL  LAYER,ROW,COL
 ---------------------------------------------------------------------------
  1 -0.2564      0 -0.2629E-05  1 -0.5806E-12
   (  1,  1, 38)  (  1,  1,  1)  (  1,  1,  1)

 MAXIMUM RESIDUAL FOR EACH ITERATION (1 INDICATES THE FIRST INNER ITERATION):

    RESIDUAL       RESIDUAL       RESIDUAL       RESIDUAL       RESIDUAL    
   LAYER,ROW,COL  LAYER,ROW,COL  LAYER,ROW,COL  LAYER,ROW,COL  LAYER,ROW,COL
 ---------------------------------------------------------------------------
  1  0.6572E-06  0  0.6023E-12  1 -0.4410E-18
   (  1,  1, 42)  (  1,  1, 37)  (  1,  1, 37)



 NO OUTPUT CONTROL FOR STRESS PERIOD    2   TIME STEP   24
 SOLVING FOR ZETA FOR LAYER     1 ZONE     2
 
 SOLVING FOR HEAD 
     2 CALLS TO PCG ROUTINE FOR TIME STEP  25 IN STRESS PERIOD    2
     3 TOTAL ITERATIONS

 MAXIMUM HEAD CHANGE FOR EACH ITERATION (1 INDICATES THE FIRST INNER ITERATION):

    HEAD CHANGE    HEAD CHANGE    HEAD CHANGE    HEAD CHANGE    HEAD CHANGE 
   LAYER,ROW,COL  LAYER,ROW,COL  LAYER,ROW,COL  LAYER,ROW,COL  LAYER,ROW,COL
 ---------------------------------------------------------------------------
  1  0.2634      0  0.2688E-05  1  0.4368E-07
   (  1,  1, 37)  (  1,  1,  1)  (  1,  1, 42)

 MAXIMUM RESIDUAL FOR EACH ITERATION (1 INDICATES THE FIRST INNER ITERATION):

    RESIDUAL       RESIDUAL       RESIDUAL       RESIDUAL       RESIDUAL    
   LAYER,ROW,COL  LAYER,ROW,COL  LAYER,ROW,COL  LAYER,ROW,COL  LAYER,ROW,COL
 ---------------------------------------------------------------------------
  1 -0.6755E-06  0 -0.6246E-12  1  0.1273E-12
   (  1,  1, 42)  (  1,  1, 37)  (  1,  1, 42)



 NO OUTPUT CONTROL FOR STRESS PERIOD    2   TIME STEP   25
 SOLVING FOR ZETA FOR LAYER     1 ZONE     2
 
 SOLVING FOR HEAD 
     2 CALLS TO PCG ROUTINE FOR TIME STEP  26 IN STRESS PERIOD    2
     3 TOTAL ITERATIONS

 MAXIMUM HEAD CHANGE FOR EACH ITERATION (1 INDICATES THE FIRST INNER ITERATION):

    HEAD CHANGE    HEAD CHANGE    HEAD CHANGE    HEAD CHANGE    HEAD CHANGE 
   LAYER,ROW,COL  LAYER,ROW,COL  LAYER,ROW,COL  LAYER,ROW,COL  LAYER,ROW,COL
 ---------------------------------------------------------------------------
  1 -0.2610      0 -0.2671E-05  1 -0.4368E-07
   (  1,  1, 38)  (  1,  1,  1)  (  1,  1, 42)

 MAXIMUM RESIDUAL FOR EACH ITERATION (1 INDICATES THE FIRST INNER ITERATION):

    RESIDUAL       RESIDUAL       RESIDUAL       RESIDUAL       RESIDUAL    
   LAYER,ROW,COL  LAYER,ROW,COL  LAYER,ROW,COL  LAYER,ROW,COL  LAYER,ROW,COL
 ---------------------------------------------------------------------------
  1  0.6751E-06  0  0.6137E-12  1 -0.1273E-12
   (  1,  1, 42)  (  1,  1, 37)  (  1,  1, 42)



 NO OUTPUT CONTROL FOR STRESS PERIOD    2   TIME STEP   26
 SOLVING FOR ZETA FOR LAYER     1 ZONE     2
 
 SOLVING FOR HEAD 
     2 CALLS TO PCG ROUTINE FOR TIME STEP  27 IN STRESS PERIOD    2
     3 TOTAL ITERATIONS

 MAXIMUM HEAD CHANGE FOR EACH ITERATION (1 INDICATES THE FIRST INNER ITERATION):

    HEAD CHANGE    HEAD CHANGE    HEAD CHANGE    HEAD CHANGE    HEAD CHANGE 
   LAYER,ROW,COL  LAYER,ROW,COL  LAYER,ROW,COL  LAYER,ROW,COL  LAYER,ROW,COL
 ---------------------------------------------------------------------------
  1  0.2682      0  0.2732E-05  1 -0.2184E-07
   (  1,  1, 37)  (  1,  1,  1)  (  1,  1, 42)

 MAXIMUM RESIDUAL FOR EACH ITERATION (1 INDICATES THE FIRST INNER ITERATION):

    RESIDUAL       RESIDUAL       RESIDUAL       RESIDUAL       RESIDUAL    
   LAYER,ROW,COL  LAYER,ROW,COL  LAYER,ROW,COL  LAYER,ROW,COL  LAYER,ROW,COL
 ---------------------------------------------------------------------------
  1 -0.6936E-06  0 -0.6367E-12  1 -0.6367E-13
   (  1,  1, 42)  (  1,  1, 37)  (  1,  1, 42)



 NO OUTPUT CONTROL FOR STRESS PERIOD    2   TIME STEP   27
 SOLVING FOR ZETA FOR LAYER     1 ZONE     2
 
 SOLVING FOR HEAD 
     2 CALLS TO PCG ROUTINE FOR TIME STEP  28 IN STRESS PERIOD    2
     3 TOTAL ITERATIONS

 MAXIMUM HEAD CHANGE FOR EACH ITERATION (1 INDICATES THE FIRST INNER ITERATION):

    HEAD CHANGE    HEAD CHANGE    HEAD CHANGE    HEAD CHANGE    HEAD CHANGE 
   LAYER,ROW,COL  LAYER,ROW,COL  LAYER,ROW,COL  LAYER,ROW,COL  LAYER,ROW,COL
 ---------------------------------------------------------------------------
  1 -0.2658      0 -0.2715E-05  1  0.2184E-07
   (  1,  1, 38)  (  1,  1,  1)  (  1,  1, 42)

 MAXIMUM RESIDUAL FOR EACH ITERATION (1 INDICATES THE FIRST INNER ITERATION):

    RESIDUAL       RESIDUAL       RESIDUAL       RESIDUAL       RESIDUAL    
   LAYER,ROW,COL  LAYER,ROW,COL  LAYER,ROW,COL  LAYER,ROW,COL  LAYER,ROW,COL
 ---------------------------------------------------------------------------
  1  0.6937E-06  0  0.6257E-12  1  0.6366E-13
   (  1,  1, 42)  (  1,  1, 37)  (  1,  1, 42)



 NO OUTPUT CONTROL FOR STRESS PERIOD    2   TIME STEP   28
 SOLVING FOR ZETA FOR LAYER     1 ZONE     2
 
 SOLVING FOR HEAD 
     2 CALLS TO PCG ROUTINE FOR TIME STEP  29 IN STRESS PERIOD    2
     3 TOTAL ITERATIONS

 MAXIMUM HEAD CHANGE FOR EACH ITERATION (1 INDICATES THE FIRST INNER ITERATION):

    HEAD CHANGE    HEAD CHANGE    HEAD CHANGE    HEAD CHANGE    HEAD CHANGE 
   LAYER,ROW,COL  LAYER,ROW,COL  LAYER,ROW,COL  LAYER,ROW,COL  LAYER,ROW,COL
 ---------------------------------------------------------------------------
  1  0.2732      0  0.2778E-05  1  0.2912E-07
   (  1,  1, 37)  (  1,  1,  1)  (  1,  1, 42)

 MAXIMUM RESIDUAL FOR EACH ITERATION (1 INDICATES THE FIRST INNER ITERATION):

    RESIDUAL       RESIDUAL       RESIDUAL       RESIDUAL       RESIDUAL    
   LAYER,ROW,COL  LAYER,ROW,COL  LAYER,ROW,COL  LAYER,ROW,COL  LAYER,ROW,COL
 ---------------------------------------------------------------------------
  1 -0.7123E-06  0 -0.6492E-12  1  0.8489E-13
   (  1,  1, 42)  (  1,  1, 37)  (  1,  1, 42)



 NO OUTPUT CONTROL FOR STRESS PERIOD    2   TIME STEP   29
 SOLVING FOR ZETA FOR LAYER     1 ZONE     2
 
 SOLVING FOR HEAD 
     2 CALLS TO PCG ROUTINE FOR TIME STEP  30 IN STRESS PERIOD    2
     3 TOTAL ITERATIONS

 MAXIMUM HEAD CHANGE FOR EACH ITERATION (1 INDICATES THE FIRST INNER ITERATION):

    HEAD CHANGE    HEAD CHANGE    HEAD CHANGE    HEAD CHANGE    HEAD CHANGE 
   LAYER,ROW,COL  LAYER,ROW,COL  LAYER,ROW,COL  LAYER,ROW,COL  LAYER,ROW,COL
 ---------------------------------------------------------------------------
  1 -0.2708      0 -0.2761E-05  1 -0.2912E-07
   (  1,  1, 38)  (  1,  1,  1)  (  1,  1, 42)

 MAXIMUM RESIDUAL FOR EACH ITERATION (1 INDICATES THE FIRST INNER ITERATION):

    RESIDUAL       RESIDUAL       RESIDUAL       RESIDUAL       RESIDUAL    
   LAYER,ROW,COL  LAYER,ROW,COL  LAYER,ROW,COL  LAYER,ROW,COL  LAYER,ROW,COL
 ---------------------------------------------------------------------------
  1  0.7128E-06  0  0.6383E-12  1 -0.8488E-13
   (  1,  1, 42)  (  1,  1, 37)  (  1,  1, 42)



 NO OUTPUT CONTROL FOR STRESS PERIOD    2   TIME STEP   30
 SOLVING FOR ZETA FOR LAYER     1 ZONE     2
 
 SOLVING FOR HEAD 
     2 CALLS TO PCG ROUTINE FOR TIME STEP  31 IN STRESS PERIOD    2
     3 TOTAL ITERATIONS

 MAXIMUM HEAD CHANGE FOR EACH ITERATION (1 INDICATES THE FIRST INNER ITERATION):

    HEAD CHANGE    HEAD CHANGE    HEAD CHANGE    HEAD CHANGE    HEAD CHANGE 
   LAYER,ROW,COL  LAYER,ROW,COL  LAYER,ROW,COL  LAYER,ROW,COL  LAYER,ROW,COL
 ---------------------------------------------------------------------------
  1  0.2783      0  0.2826E-05  1 -0.3276E-07
   (  1,  1, 37)  (  1,  1,  1)  (  1,  1, 42)

 MAXIMUM RESIDUAL FOR EACH ITERATION (1 INDICATES THE FIRST INNER ITERATION):

    RESIDUAL       RESIDUAL       RESIDUAL       RESIDUAL       RESIDUAL    
   LAYER,ROW,COL  LAYER,ROW,COL  LAYER,ROW,COL  LAYER,ROW,COL  LAYER,ROW,COL
 ---------------------------------------------------------------------------
  1 -0.7311E-06  0 -0.6621E-12  1 -0.9550E-13
   (  1,  1, 42)  (  1,  1, 37)  (  1,  1, 42)



 NO OUTPUT CONTROL FOR STRESS PERIOD    2   TIME STEP   31
 SOLVING FOR ZETA FOR LAYER     1 ZONE     2
 
 SOLVING FOR HEAD 
     2 CALLS TO PCG ROUTINE FOR TIME STEP  32 IN STRESS PERIOD    2
     3 TOTAL ITERATIONS

 MAXIMUM HEAD CHANGE FOR EACH ITERATION (1 INDICATES THE FIRST INNER ITERATION):

    HEAD CHANGE    HEAD CHANGE    HEAD CHANGE    HEAD CHANGE    HEAD CHANGE 
   LAYER,ROW,COL  LAYER,ROW,COL  LAYER,ROW,COL  LAYER,ROW,COL  LAYER,ROW,COL
 ---------------------------------------------------------------------------
  1 -0.2759      0 -0.2809E-05  1  0.3276E-07
   (  1,  1, 38)  (  1,  1,  1)  (  1,  1, 42)

 MAXIMUM RESIDUAL FOR EACH ITERATION (1 INDICATES THE FIRST INNER ITERATION):

    RESIDUAL       RESIDUAL       RESIDUAL       RESIDUAL       RESIDUAL    
   LAYER,ROW,COL  LAYER,ROW,COL  LAYER,ROW,COL  LAYER,ROW,COL  LAYER,ROW,COL
 ---------------------------------------------------------------------------
  1  0.7319E-06  0  0.6514E-12  1  0.9549E-13
   (  1,  1, 42)  (  1,  1, 37)  (  1,  1, 42)



 NO OUTPUT CONTROL FOR STRESS PERIOD    2   TIME STEP   32
 SOLVING FOR ZETA FOR LAYER     1 ZONE     2
 
 SOLVING FOR HEAD 
     2 CALLS TO PCG ROUTINE FOR TIME STEP  33 IN STRESS PERIOD    2
     3 TOTAL ITERATIONS

 MAXIMUM HEAD CHANGE FOR EACH ITERATION (1 INDICATES THE FIRST INNER ITERATION):

    HEAD CHANGE    HEAD CHANGE    HEAD CHANGE    HEAD CHANGE    HEAD CHANGE 
   LAYER,ROW,COL  LAYER,ROW,COL  LAYER,ROW,COL  LAYER,ROW,COL  LAYER,ROW,COL
 ---------------------------------------------------------------------------
  1  0.2835      0  0.2875E-05  1  0.2184E-07
   (  1,  1, 37)  (  1,  1,  1)  (  1,  1, 42)

 MAXIMUM RESIDUAL FOR EACH ITERATION (1 INDICATES THE FIRST INNER ITERATION):

    RESIDUAL       RESIDUAL       RESIDUAL       RESIDUAL       RESIDUAL    
   LAYER,ROW,COL  LAYER,ROW,COL  LAYER,ROW,COL  LAYER,ROW,COL  LAYER,ROW,COL
 ---------------------------------------------------------------------------
  1 -0.7499E-06  0 -0.6752E-12  1  0.6366E-13
   (  1,  1, 42)  (  1,  1, 37)  (  1,  1, 42)



 NO OUTPUT CONTROL FOR STRESS PERIOD    2   TIME STEP   33
 SOLVING FOR ZETA FOR LAYER     1 ZONE     2
 
 SOLVING FOR HEAD 
     2 CALLS TO PCG ROUTINE FOR TIME STEP  34 IN STRESS PERIOD    2
     3 TOTAL ITERATIONS

 MAXIMUM HEAD CHANGE FOR EACH ITERATION (1 INDICATES THE FIRST INNER ITERATION):

    HEAD CHANGE    HEAD CHANGE    HEAD CHANGE    HEAD CHANGE    HEAD CHANGE 
   LAYER,ROW,COL  LAYER,ROW,COL  LAYER,ROW,COL  LAYER,ROW,COL  LAYER,ROW,COL
 ---------------------------------------------------------------------------
  1 -0.2812      0 -0.2857E-05  1 -0.2184E-07
   (  1,  1, 38)  (  1,  1,  1)  (  1,  1, 42)

 MAXIMUM RESIDUAL FOR EACH ITERATION (1 INDICATES THE FIRST INNER ITERATION):

    RESIDUAL       RESIDUAL       RESIDUAL       RESIDUAL       RESIDUAL    
   LAYER,ROW,COL  LAYER,ROW,COL  LAYER,ROW,COL  LAYER,ROW,COL  LAYER,ROW,COL
 ---------------------------------------------------------------------------
  1  0.7509E-06  0  0.6647E-12  1 -0.6366E-13
   (  1,  1, 42)  (  1,  1, 37)  (  1,  1, 42)



 NO OUTPUT CONTROL FOR STRESS PERIOD    2   TIME STEP   34
 SOLVING FOR ZETA FOR LAYER     1 ZONE     2
 
 SOLVING FOR HEAD 
     2 CALLS TO PCG ROUTINE FOR TIME STEP  35 IN STRESS PERIOD    2
     3 TOTAL ITERATIONS

 MAXIMUM HEAD CHANGE FOR EACH ITERATION (1 INDICATES THE FIRST INNER ITERATION):

    HEAD CHANGE    HEAD CHANGE    HEAD CHANGE    HEAD CHANGE    HEAD CHANGE 
   LAYER,ROW,COL  LAYER,ROW,COL  LAYER,ROW,COL  LAYER,ROW,COL  LAYER,ROW,COL
 ---------------------------------------------------------------------------
  1  0.2888      0  0.2924E-05  1 -0.3640E-07
   (  1,  1, 37)  (  1,  1,  1)  (  1,  1, 42)

 MAXIMUM RESIDUAL FOR EACH ITERATION (1 INDICATES THE FIRST INNER ITERATION):

    RESIDUAL       RESIDUAL       RESIDUAL       RESIDUAL       RESIDUAL    
   LAYER,ROW,COL  LAYER,ROW,COL  LAYER,ROW,COL  LAYER,ROW,COL  LAYER,ROW,COL
 ---------------------------------------------------------------------------
  1 -0.7683E-06  0 -0.6884E-12  1 -0.1061E-12
   (  1,  1, 42)  (  1,  1, 37)  (  1,  1, 42)



 NO OUTPUT CONTROL FOR STRESS PERIOD    2   TIME STEP   35
 SOLVING FOR ZETA FOR LAYER     1 ZONE     2
 
 SOLVING FOR HEAD 
     2 CALLS TO PCG ROUTINE FOR TIME STEP  36 IN STRESS PERIOD    2
     3 TOTAL ITERATIONS

 MAXIMUM HEAD CHANGE FOR EACH ITERATION (1 INDICATES THE FIRST INNER ITERATION):

    HEAD CHANGE    HEAD CHANGE    HEAD CHANGE    HEAD CHANGE    HEAD CHANGE 
   LAYER,ROW,COL  LAYER,ROW,COL  LAYER,ROW,COL  LAYER,ROW,COL  LAYER,ROW,COL
 ---------------------------------------------------------------------------
  1 -0.2865      0 -0.2907E-05  1  0.3640E-07
   (  1,  1, 38)  (  1,  1,  1)  (  1,  1, 42)

 MAXIMUM RESIDUAL FOR EACH ITERATION (1 INDICATES THE FIRST INNER ITERATION):

    RESIDUAL       RESIDUAL       RESIDUAL       RESIDUAL       RESIDUAL    
   LAYER,ROW,COL  LAYER,ROW,COL  LAYER,ROW,COL  LAYER,ROW,COL  LAYER,ROW,COL
 ---------------------------------------------------------------------------
  1  0.7695E-06  0  0.6783E-12  1  0.1061E-12
   (  1,  1, 42)  (  1,  1, 37)  (  1,  1, 42)



 NO OUTPUT CONTROL FOR STRESS PERIOD    2   TIME STEP   36
 SOLVING FOR ZETA FOR LAYER     1 ZONE     2
 
 SOLVING FOR HEAD 
     2 CALLS TO PCG ROUTINE FOR TIME STEP  37 IN STRESS PERIOD    2
     3 TOTAL ITERATIONS

 MAXIMUM HEAD CHANGE FOR EACH ITERATION (1 INDICATES THE FIRST INNER ITERATION):

    HEAD CHANGE    HEAD CHANGE    HEAD CHANGE    HEAD CHANGE    HEAD CHANGE 
   LAYER,ROW,COL  LAYER,ROW,COL  LAYER,ROW,COL  LAYER,ROW,COL  LAYER,ROW,COL
 ---------------------------------------------------------------------------
  1  0.2377      0  0.2389E-05  1  0.2184E-07
   (  1,  1, 41)  (  1,  1,  1)  (  1,  1, 42)

 MAXIMUM RESIDUAL FOR EACH ITERATION (1 INDICATES THE FIRST INNER ITERATION):

    RESIDUAL       RESIDUAL       RESIDUAL       RESIDUAL       RESIDUAL    
   LAYER,ROW,COL  LAYER,ROW,COL  LAYER,ROW,COL  LAYER,ROW,COL  LAYER,ROW,COL
 ---------------------------------------------------------------------------
  1 -0.5520E-06  0  0.5735E-12  1  0.6366E-13
   (  1,  1, 42)  (  1,  1, 40)  (  1,  1, 42)



 NO OUTPUT CONTROL FOR STRESS PERIOD    2   TIME STEP   37
 SOLVING FOR ZETA FOR LAYER     1 ZONE     2
 
 SOLVING FOR HEAD 
     2 CALLS TO PCG ROUTINE FOR TIME STEP  38 IN STRESS PERIOD    2
     3 TOTAL ITERATIONS

 MAXIMUM HEAD CHANGE FOR EACH ITERATION (1 INDICATES THE FIRST INNER ITERATION):

    HEAD CHANGE    HEAD CHANGE    HEAD CHANGE    HEAD CHANGE    HEAD CHANGE 
   LAYER,ROW,COL  LAYER,ROW,COL  LAYER,ROW,COL  LAYER,ROW,COL  LAYER,ROW,COL
 ---------------------------------------------------------------------------
  1 -0.2379      0 -0.2403E-05  1 -0.2184E-07
   (  1,  1, 39)  (  1,  1,  1)  (  1,  1, 42)

 MAXIMUM RESIDUAL FOR EACH ITERATION (1 INDICATES THE FIRST INNER ITERATION):

    RESIDUAL       RESIDUAL       RESIDUAL       RESIDUAL       RESIDUAL    
   LAYER,ROW,COL  LAYER,ROW,COL  LAYER,ROW,COL  LAYER,ROW,COL  LAYER,ROW,COL
 ---------------------------------------------------------------------------
  1 -0.5670E-06  0  0.5489E-12  1 -0.6366E-13
   (  1,  1, 41)  (  1,  1, 37)  (  1,  1, 42)



 NO OUTPUT CONTROL FOR STRESS PERIOD    2   TIME STEP   38
 SOLVING FOR ZETA FOR LAYER     1 ZONE     2
 
 SOLVING FOR HEAD 
     2 CALLS TO PCG ROUTINE FOR TIME STEP  39 IN STRESS PERIOD    2
     3 TOTAL ITERATIONS

 MAXIMUM HEAD CHANGE FOR EACH ITERATION (1 INDICATES THE FIRST INNER ITERATION):

    HEAD CHANGE    HEAD CHANGE    HEAD CHANGE    HEAD CHANGE    HEAD CHANGE 
   LAYER,ROW,COL  LAYER,ROW,COL  LAYER,ROW,COL  LAYER,ROW,COL  LAYER,ROW,COL
 ---------------------------------------------------------------------------
  1  0.2375      0  0.2431E-05  1  0.2548E-07
   (  1,  1, 41)  (  1,  1,  1)  (  1,  1, 42)

 MAXIMUM RESIDUAL FOR EACH ITERATION (1 INDICATES THE FIRST INNER ITERATION):

    RESIDUAL       RESIDUAL       RESIDUAL       RESIDUAL       RESIDUAL    
   LAYER,ROW,COL  LAYER,ROW,COL  LAYER,ROW,COL  LAYER,ROW,COL  LAYER,ROW,COL
 ---------------------------------------------------------------------------
  1 -0.5730E-06  0  0.5724E-12  1  0.7427E-13
   (  1,  1, 42)  (  1,  1, 40)  (  1,  1, 42)



 NO OUTPUT CONTROL FOR STRESS PERIOD    2   TIME STEP   39
 SOLVING FOR ZETA FOR LAYER     1 ZONE     2
 
 SOLVING FOR HEAD 
     2 CALLS TO PCG ROUTINE FOR TIME STEP  40 IN STRESS PERIOD    2
     3 TOTAL ITERATIONS

 MAXIMUM HEAD CHANGE FOR EACH ITERATION (1 INDICATES THE FIRST INNER ITERATION):

    HEAD CHANGE    HEAD CHANGE    HEAD CHANGE    HEAD CHANGE    HEAD CHANGE 
   LAYER,ROW,COL  LAYER,ROW,COL  LAYER,ROW,COL  LAYER,ROW,COL  LAYER,ROW,COL
 ---------------------------------------------------------------------------
  1 -0.2386      0 -0.2407E-05  1 -0.2548E-07
   (  1,  1, 39)  (  1,  1,  1)  (  1,  1, 42)

 MAXIMUM RESIDUAL FOR EACH ITERATION (1 INDICATES THE FIRST INNER ITERATION):

    RESIDUAL       RESIDUAL       RESIDUAL       RESIDUAL       RESIDUAL    
   LAYER,ROW,COL  LAYER,ROW,COL  LAYER,ROW,COL  LAYER,ROW,COL  LAYER,ROW,COL
 ---------------------------------------------------------------------------
  1 -0.5673E-06  0  0.5498E-12  1 -0.7427E-13
   (  1,  1, 41)  (  1,  1, 37)  (  1,  1, 42)



 NO OUTPUT CONTROL FOR STRESS PERIOD    2   TIME STEP   40
 SOLVING FOR ZETA FOR LAYER     1 ZONE     2
 
 SOLVING FOR HEAD 
     2 CALLS TO PCG ROUTINE FOR TIME STEP  41 IN STRESS PERIOD    2
     3 TOTAL ITERATIONS

 MAXIMUM HEAD CHANGE FOR EACH ITERATION (1 INDICATES THE FIRST INNER ITERATION):

    HEAD CHANGE    HEAD CHANGE    HEAD CHANGE    HEAD CHANGE    HEAD CHANGE 
   LAYER,ROW,COL  LAYER,ROW,COL  LAYER,ROW,COL  LAYER,ROW,COL  LAYER,ROW,COL
 ---------------------------------------------------------------------------
  1  0.2382      0  0.2449E-05  1  0.3276E-07
   (  1,  1, 37)  (  1,  1,  1)  (  1,  1, 42)

 MAXIMUM RESIDUAL FOR EACH ITERATION (1 INDICATES THE FIRST INNER ITERATION):

    RESIDUAL       RESIDUAL       RESIDUAL       RESIDUAL       RESIDUAL    
   LAYER,ROW,COL  LAYER,ROW,COL  LAYER,ROW,COL  LAYER,ROW,COL  LAYER,ROW,COL
 ---------------------------------------------------------------------------
  1 -0.5816E-06  0  0.5734E-12  1  0.9550E-13
   (  1,  1, 42)  (  1,  1, 40)  (  1,  1, 42)



 NO OUTPUT CONTROL FOR STRESS PERIOD    2   TIME STEP   41
 SOLVING FOR ZETA FOR LAYER     1 ZONE     2
 
 SOLVING FOR HEAD 
     2 CALLS TO PCG ROUTINE FOR TIME STEP  42 IN STRESS PERIOD    2
     3 TOTAL ITERATIONS

 MAXIMUM HEAD CHANGE FOR EACH ITERATION (1 INDICATES THE FIRST INNER ITERATION):

    HEAD CHANGE    HEAD CHANGE    HEAD CHANGE    HEAD CHANGE    HEAD CHANGE 
   LAYER,ROW,COL  LAYER,ROW,COL  LAYER,ROW,COL  LAYER,ROW,COL  LAYER,ROW,COL
 ---------------------------------------------------------------------------
  1 -0.2405      0 -0.2426E-05  1 -0.3276E-07
   (  1,  1, 39)  (  1,  1,  1)  (  1,  1, 42)

 MAXIMUM RESIDUAL FOR EACH ITERATION (1 INDICATES THE FIRST INNER ITERATION):

    RESIDUAL       RESIDUAL       RESIDUAL       RESIDUAL       RESIDUAL    
   LAYER,ROW,COL  LAYER,ROW,COL  LAYER,ROW,COL  LAYER,ROW,COL  LAYER,ROW,COL
 ---------------------------------------------------------------------------
  1 -0.5722E-06  0  0.5539E-12  1 -0.9550E-13
   (  1,  1, 41)  (  1,  1, 37)  (  1,  1, 42)



 NO OUTPUT CONTROL FOR STRESS PERIOD    2   TIME STEP   42
 SOLVING FOR ZETA FOR LAYER     1 ZONE     2
 
 SOLVING FOR HEAD 
     2 CALLS TO PCG ROUTINE FOR TIME STEP  43 IN STRESS PERIOD    2
     3 TOTAL ITERATIONS

 MAXIMUM HEAD CHANGE FOR EACH ITERATION (1 INDICATES THE FIRST INNER ITERATION):

    HEAD CHANGE    HEAD CHANGE    HEAD CHANGE    HEAD CHANGE    HEAD CHANGE 
   LAYER,ROW,COL  LAYER,ROW,COL  LAYER,ROW,COL  LAYER,ROW,COL  LAYER,ROW,COL
 ---------------------------------------------------------------------------
  1  0.2411      0  0.2477E-05  1  0.5460E-07
   (  1,  1, 38)  (  1,  1,  1)  (  1,  1, 42)

 MAXIMUM RESIDUAL FOR EACH ITERATION (1 INDICATES THE FIRST INNER ITERATION):

    RESIDUAL       RESIDUAL       RESIDUAL       RESIDUAL       RESIDUAL    
   LAYER,ROW,COL  LAYER,ROW,COL  LAYER,ROW,COL  LAYER,ROW,COL  LAYER,ROW,COL
 ---------------------------------------------------------------------------
  1 -0.5944E-06  0  0.5759E-12  1  0.1592E-12
   (  1,  1, 42)  (  1,  1, 40)  (  1,  1, 42)



 NO OUTPUT CONTROL FOR STRESS PERIOD    2   TIME STEP   43
 SOLVING FOR ZETA FOR LAYER     1 ZONE     2
 
 SOLVING FOR HEAD 
     2 CALLS TO PCG ROUTINE FOR TIME STEP  44 IN STRESS PERIOD    2
     3 TOTAL ITERATIONS

 MAXIMUM HEAD CHANGE FOR EACH ITERATION (1 INDICATES THE FIRST INNER ITERATION):

    HEAD CHANGE    HEAD CHANGE    HEAD CHANGE    HEAD CHANGE    HEAD CHANGE 
   LAYER,ROW,COL  LAYER,ROW,COL  LAYER,ROW,COL  LAYER,ROW,COL  LAYER,ROW,COL
 ---------------------------------------------------------------------------
  1 -0.2432      0 -0.2454E-05  1 -0.5460E-07
   (  1,  1, 39)  (  1,  1,  1)  (  1,  1, 42)

 MAXIMUM RESIDUAL FOR EACH ITERATION (1 INDICATES THE FIRST INNER ITERATION):

    RESIDUAL       RESIDUAL       RESIDUAL       RESIDUAL       RESIDUAL    
   LAYER,ROW,COL  LAYER,ROW,COL  LAYER,ROW,COL  LAYER,ROW,COL  LAYER,ROW,COL
 ---------------------------------------------------------------------------
  1 -0.5795E-06  0  0.5604E-12  1 -0.1592E-12
   (  1,  1, 41)  (  1,  1, 37)  (  1,  1, 42)



 NO OUTPUT CONTROL FOR STRESS PERIOD    2   TIME STEP   44
 SOLVING FOR ZETA FOR LAYER     1 ZONE     2
 
 SOLVING FOR HEAD 
     2 CALLS TO PCG ROUTINE FOR TIME STEP  45 IN STRESS PERIOD    2
     3 TOTAL ITERATIONS

 MAXIMUM HEAD CHANGE FOR EACH ITERATION (1 INDICATES THE FIRST INNER ITERATION):

    HEAD CHANGE    HEAD CHANGE    HEAD CHANGE    HEAD CHANGE    HEAD CHANGE 
   LAYER,ROW,COL  LAYER,ROW,COL  LAYER,ROW,COL  LAYER,ROW,COL  LAYER,ROW,COL
 ---------------------------------------------------------------------------
  1  0.2450      0  0.2510E-05  1 -0.3276E-07
   (  1,  1, 38)  (  1,  1,  1)  (  1,  1, 42)

 MAXIMUM RESIDUAL FOR EACH ITERATION (1 INDICATES THE FIRST INNER ITERATION):

    RESIDUAL       RESIDUAL       RESIDUAL       RESIDUAL       RESIDUAL    
   LAYER,ROW,COL  LAYER,ROW,COL  LAYER,ROW,COL  LAYER,ROW,COL  LAYER,ROW,COL
 ---------------------------------------------------------------------------
  1 -0.6104E-06  0  0.5795E-12  1 -0.9550E-13
   (  1,  1, 42)  (  1,  1, 40)  (  1,  1, 42)



 NO OUTPUT CONTROL FOR STRESS PERIOD    2   TIME STEP   45
 SOLVING FOR ZETA FOR LAYER     1 ZONE     2
 
 SOLVING FOR HEAD 
     2 CALLS TO PCG ROUTINE FOR TIME STEP  46 IN STRESS PERIOD    2
     3 TOTAL ITERATIONS

 MAXIMUM HEAD CHANGE FOR EACH ITERATION (1 INDICATES THE FIRST INNER ITERATION):

    HEAD CHANGE    HEAD CHANGE    HEAD CHANGE    HEAD CHANGE    HEAD CHANGE 
   LAYER,ROW,COL  LAYER,ROW,COL  LAYER,ROW,COL  LAYER,ROW,COL  LAYER,ROW,COL
 ---------------------------------------------------------------------------
  1 -0.2464      0 -0.2488E-05  1  0.3276E-07
   (  1,  1, 39)  (  1,  1,  1)  (  1,  1, 42)

 MAXIMUM RESIDUAL FOR EACH ITERATION (1 INDICATES THE FIRST INNER ITERATION):

    RESIDUAL       RESIDUAL       RESIDUAL       RESIDUAL       RESIDUAL    
   LAYER,ROW,COL  LAYER,ROW,COL  LAYER,ROW,COL  LAYER,ROW,COL  LAYER,ROW,COL
 ---------------------------------------------------------------------------
  1 -0.5881E-06  0  0.5686E-12  1  0.9550E-13
   (  1,  1, 41)  (  1,  1, 37)  (  1,  1, 42)



 NO OUTPUT CONTROL FOR STRESS PERIOD    2   TIME STEP   46
 SOLVING FOR ZETA FOR LAYER     1 ZONE     2
 
 SOLVING FOR HEAD 
     2 CALLS TO PCG ROUTINE FOR TIME STEP  47 IN STRESS PERIOD    2
     3 TOTAL ITERATIONS

 MAXIMUM HEAD CHANGE FOR EACH ITERATION (1 INDICATES THE FIRST INNER ITERATION):

    HEAD CHANGE    HEAD CHANGE    HEAD CHANGE    HEAD CHANGE    HEAD CHANGE 
   LAYER,ROW,COL  LAYER,ROW,COL  LAYER,ROW,COL  LAYER,ROW,COL  LAYER,ROW,COL
 ---------------------------------------------------------------------------
  1  0.2492      0  0.2547E-05  1  0.7280E-08
   (  1,  1, 38)  (  1,  1,  1)  (  1,  1, 42)

 MAXIMUM RESIDUAL FOR EACH ITERATION (1 INDICATES THE FIRST INNER ITERATION):

    RESIDUAL       RESIDUAL       RESIDUAL       RESIDUAL       RESIDUAL    
   LAYER,ROW,COL  LAYER,ROW,COL  LAYER,ROW,COL  LAYER,ROW,COL  LAYER,ROW,COL
 ---------------------------------------------------------------------------
  1 -0.6283E-06  0 -0.5850E-12  1  0.2122E-13
   (  1,  1, 42)  (  1,  1, 37)  (  1,  1, 42)



 NO OUTPUT CONTROL FOR STRESS PERIOD    2   TIME STEP   47
 SOLVING FOR ZETA FOR LAYER     1 ZONE     2
 
 SOLVING FOR HEAD 
     2 CALLS TO PCG ROUTINE FOR TIME STEP  48 IN STRESS PERIOD    2
     3 TOTAL ITERATIONS

 MAXIMUM HEAD CHANGE FOR EACH ITERATION (1 INDICATES THE FIRST INNER ITERATION):

    HEAD CHANGE    HEAD CHANGE    HEAD CHANGE    HEAD CHANGE    HEAD CHANGE 
   LAYER,ROW,COL  LAYER,ROW,COL  LAYER,ROW,COL  LAYER,ROW,COL  LAYER,ROW,COL
 ---------------------------------------------------------------------------
  1 -0.2500      0 -0.2526E-05  1 -0.7280E-08
   (  1,  1, 39)  (  1,  1,  1)  (  1,  1, 42)

 MAXIMUM RESIDUAL FOR EACH ITERATION (1 INDICATES THE FIRST INNER ITERATION):

    RESIDUAL       RESIDUAL       RESIDUAL       RESIDUAL       RESIDUAL    
   LAYER,ROW,COL  LAYER,ROW,COL  LAYER,ROW,COL  LAYER,ROW,COL  LAYER,ROW,COL
 ---------------------------------------------------------------------------
  1  0.6038E-06  0  0.5780E-12  1 -0.2122E-13
   (  1,  1, 42)  (  1,  1, 37)  (  1,  1, 42)



 NO OUTPUT CONTROL FOR STRESS PERIOD    2   TIME STEP   48
 SOLVING FOR ZETA FOR LAYER     1 ZONE     2
 
 SOLVING FOR HEAD 
     2 CALLS TO PCG ROUTINE FOR TIME STEP  49 IN STRESS PERIOD    2
     3 TOTAL ITERATIONS

 MAXIMUM HEAD CHANGE FOR EACH ITERATION (1 INDICATES THE FIRST INNER ITERATION):

    HEAD CHANGE    HEAD CHANGE    HEAD CHANGE    HEAD CHANGE    HEAD CHANGE 
   LAYER,ROW,COL  LAYER,ROW,COL  LAYER,ROW,COL  LAYER,ROW,COL  LAYER,ROW,COL
 ---------------------------------------------------------------------------
  1  0.2535      0  0.2586E-05  1  0.5096E-07
   (  1,  1, 38)  (  1,  1,  1)  (  1,  1, 42)

 MAXIMUM RESIDUAL FOR EACH ITERATION (1 INDICATES THE FIRST INNER ITERATION):

    RESIDUAL       RESIDUAL       RESIDUAL       RESIDUAL       RESIDUAL    
   LAYER,ROW,COL  LAYER,ROW,COL  LAYER,ROW,COL  LAYER,ROW,COL  LAYER,ROW,COL
 ---------------------------------------------------------------------------
  1 -0.6471E-06  0 -0.5944E-12  1  0.1485E-12
   (  1,  1, 42)  (  1,  1, 37)  (  1,  1, 42)



 NO OUTPUT CONTROL FOR STRESS PERIOD    2   TIME STEP   49
 SOLVING FOR ZETA FOR LAYER     1 ZONE     2
 
 SOLVING FOR HEAD 
     2 CALLS TO PCG ROUTINE FOR TIME STEP  50 IN STRESS PERIOD    2
     3 TOTAL ITERATIONS

 MAXIMUM HEAD CHANGE FOR EACH ITERATION (1 INDICATES THE FIRST INNER ITERATION):

    HEAD CHANGE    HEAD CHANGE    HEAD CHANGE    HEAD CHANGE    HEAD CHANGE 
   LAYER,ROW,COL  LAYER,ROW,COL  LAYER,ROW,COL  LAYER,ROW,COL  LAYER,ROW,COL
 ---------------------------------------------------------------------------
  1 -0.2537      0 -0.2566E-05  1 -0.5096E-07
   (  1,  1, 39)  (  1,  1,  1)  (  1,  1, 42)

 MAXIMUM RESIDUAL FOR EACH ITERATION (1 INDICATES THE FIRST INNER ITERATION):

    RESIDUAL       RESIDUAL       RESIDUAL       RESIDUAL       RESIDUAL    
   LAYER,ROW,COL  LAYER,ROW,COL  LAYER,ROW,COL  LAYER,ROW,COL  LAYER,ROW,COL
 ---------------------------------------------------------------------------
  1  0.6256E-06  0  0.5879E-12  1 -0.1485E-12
   (  1,  1, 42)  (  1,  1, 37)  (  1,  1, 42)



 NO OUTPUT CONTROL FOR STRESS PERIOD    2   TIME STEP   50
 SOLVING FOR ZETA FOR LAYER     1 ZONE     2
 
 SOLVING FOR HEAD 
     2 CALLS TO PCG ROUTINE FOR TIME STEP  51 IN STRESS PERIOD    2
     3 TOTAL ITERATIONS

 MAXIMUM HEAD CHANGE FOR EACH ITERATION (1 INDICATES THE FIRST INNER ITERATION):

    HEAD CHANGE    HEAD CHANGE    HEAD CHANGE    HEAD CHANGE    HEAD CHANGE 
   LAYER,ROW,COL  LAYER,ROW,COL  LAYER,ROW,COL  LAYER,ROW,COL  LAYER,ROW,COL
 ---------------------------------------------------------------------------
  1  0.2578      0  0.2625E-05  1 -0.2184E-07
   (  1,  1, 38)  (  1,  1,  1)  (  1,  1, 42)

 MAXIMUM RESIDUAL FOR EACH ITERATION (1 INDICATES THE FIRST INNER ITERATION):

    RESIDUAL       RESIDUAL       RESIDUAL       RESIDUAL       RESIDUAL    
   LAYER,ROW,COL  LAYER,ROW,COL  LAYER,ROW,COL  LAYER,ROW,COL  LAYER,ROW,COL
 ---------------------------------------------------------------------------
  1 -0.6661E-06  0 -0.6038E-12  1 -0.6367E-13
   (  1,  1, 42)  (  1,  1, 37)  (  1,  1, 42)



 NO OUTPUT CONTROL FOR STRESS PERIOD    2   TIME STEP   51
 SOLVING FOR ZETA FOR LAYER     1 ZONE     2
 
 SOLVING FOR HEAD 
     2 CALLS TO PCG ROUTINE FOR TIME STEP  52 IN STRESS PERIOD    2
     3 TOTAL ITERATIONS

 MAXIMUM HEAD CHANGE FOR EACH ITERATION (1 INDICATES THE FIRST INNER ITERATION):

    HEAD CHANGE    HEAD CHANGE    HEAD CHANGE    HEAD CHANGE    HEAD CHANGE 
   LAYER,ROW,COL  LAYER,ROW,COL  LAYER,ROW,COL  LAYER,ROW,COL  LAYER,ROW,COL
 ---------------------------------------------------------------------------
  1 -0.2574      0 -0.2605E-05  1  0.2184E-07
   (  1,  1, 39)  (  1,  1,  1)  (  1,  1, 42)

 MAXIMUM RESIDUAL FOR EACH ITERATION (1 INDICATES THE FIRST INNER ITERATION):

    RESIDUAL       RESIDUAL       RESIDUAL       RESIDUAL       RESIDUAL    
   LAYER,ROW,COL  LAYER,ROW,COL  LAYER,ROW,COL  LAYER,ROW,COL  LAYER,ROW,COL
 ---------------------------------------------------------------------------
  1  0.6473E-06  0  0.5980E-12  1  0.6366E-13
   (  1,  1, 42)  (  1,  1, 37)  (  1,  1, 42)



 NO OUTPUT CONTROL FOR STRESS PERIOD    2   TIME STEP   52
 SOLVING FOR ZETA FOR LAYER     1 ZONE     2
 
 SOLVING FOR HEAD 
     2 CALLS TO PCG ROUTINE FOR TIME STEP  53 IN STRESS PERIOD    2
     3 TOTAL ITERATIONS

 MAXIMUM HEAD CHANGE FOR EACH ITERATION (1 INDICATES THE FIRST INNER ITERATION):

    HEAD CHANGE    HEAD CHANGE    HEAD CHANGE    HEAD CHANGE    HEAD CHANGE 
   LAYER,ROW,COL  LAYER,ROW,COL  LAYER,ROW,COL  LAYER,ROW,COL  LAYER,ROW,COL
 ---------------------------------------------------------------------------
  1  0.2620      0  0.2664E-05  1  0.2548E-07
   (  1,  1, 38)  (  1,  1,  1)  (  1,  1, 42)

 MAXIMUM RESIDUAL FOR EACH ITERATION (1 INDICATES THE FIRST INNER ITERATION):

    RESIDUAL       RESIDUAL       RESIDUAL       RESIDUAL       RESIDUAL    
   LAYER,ROW,COL  LAYER,ROW,COL  LAYER,ROW,COL  LAYER,ROW,COL  LAYER,ROW,COL
 ---------------------------------------------------------------------------
  1 -0.6847E-06  0 -0.6130E-12  1  0.7428E-13
   (  1,  1, 42)  (  1,  1, 37)  (  1,  1, 42)



 NO OUTPUT CONTROL FOR STRESS PERIOD    2   TIME STEP   53
 SOLVING FOR ZETA FOR LAYER     1 ZONE     2
 
 SOLVING FOR HEAD 
     2 CALLS TO PCG ROUTINE FOR TIME STEP  54 IN STRESS PERIOD    2
     3 TOTAL ITERATIONS

 MAXIMUM HEAD CHANGE FOR EACH ITERATION (1 INDICATES THE FIRST INNER ITERATION):

    HEAD CHANGE    HEAD CHANGE    HEAD CHANGE    HEAD CHANGE    HEAD CHANGE 
   LAYER,ROW,COL  LAYER,ROW,COL  LAYER,ROW,COL  LAYER,ROW,COL  LAYER,ROW,COL
 ---------------------------------------------------------------------------
  1 -0.2610      0 -0.2645E-05  1 -0.2548E-07
   (  1,  1, 39)  (  1,  1,  1)  (  1,  1, 42)

 MAXIMUM RESIDUAL FOR EACH ITERATION (1 INDICATES THE FIRST INNER ITERATION):

    RESIDUAL       RESIDUAL       RESIDUAL       RESIDUAL       RESIDUAL    
   LAYER,ROW,COL  LAYER,ROW,COL  LAYER,ROW,COL  LAYER,ROW,COL  LAYER,ROW,COL
 ---------------------------------------------------------------------------
  1  0.6682E-06  0  0.6079E-12  1 -0.7427E-13
   (  1,  1, 42)  (  1,  1, 37)  (  1,  1, 42)



 NO OUTPUT CONTROL FOR STRESS PERIOD    2   TIME STEP   54
 SOLVING FOR ZETA FOR LAYER     1 ZONE     2
 
 SOLVING FOR HEAD 
     2 CALLS TO PCG ROUTINE FOR TIME STEP  55 IN STRESS PERIOD    2
     3 TOTAL ITERATIONS

 MAXIMUM HEAD CHANGE FOR EACH ITERATION (1 INDICATES THE FIRST INNER ITERATION):

    HEAD CHANGE    HEAD CHANGE    HEAD CHANGE    HEAD CHANGE    HEAD CHANGE 
   LAYER,ROW,COL  LAYER,ROW,COL  LAYER,ROW,COL  LAYER,ROW,COL  LAYER,ROW,COL
 ---------------------------------------------------------------------------
  1  0.2660      0  0.2701E-05  1 -0.4732E-07
   (  1,  1, 38)  (  1,  1,  1)  (  1,  1, 42)

 MAXIMUM RESIDUAL FOR EACH ITERATION (1 INDICATES THE FIRST INNER ITERATION):

    RESIDUAL       RESIDUAL       RESIDUAL       RESIDUAL       RESIDUAL    
   LAYER,ROW,COL  LAYER,ROW,COL  LAYER,ROW,COL  LAYER,ROW,COL  LAYER,ROW,COL
 ---------------------------------------------------------------------------
  1 -0.7028E-06  0 -0.6220E-12  1 -0.1379E-12
   (  1,  1, 42)  (  1,  1, 37)  (  1,  1, 42)



 NO OUTPUT CONTROL FOR STRESS PERIOD    2   TIME STEP   55
 SOLVING FOR ZETA FOR LAYER     1 ZONE     2
 
 SOLVING FOR HEAD 
     2 CALLS TO PCG ROUTINE FOR TIME STEP  56 IN STRESS PERIOD    2
     3 TOTAL ITERATIONS

 MAXIMUM HEAD CHANGE FOR EACH ITERATION (1 INDICATES THE FIRST INNER ITERATION):

    HEAD CHANGE    HEAD CHANGE    HEAD CHANGE    HEAD CHANGE    HEAD CHANGE 
   LAYER,ROW,COL  LAYER,ROW,COL  LAYER,ROW,COL  LAYER,ROW,COL  LAYER,ROW,COL
 ---------------------------------------------------------------------------
  1 -0.2646      0 -0.2683E-05  1  0.4732E-07
   (  1,  1, 39)  (  1,  1,  1)  (  1,  1, 42)

 MAXIMUM RESIDUAL FOR EACH ITERATION (1 INDICATES THE FIRST INNER ITERATION):

    RESIDUAL       RESIDUAL       RESIDUAL       RESIDUAL       RESIDUAL    
   LAYER,ROW,COL  LAYER,ROW,COL  LAYER,ROW,COL  LAYER,ROW,COL  LAYER,ROW,COL
 ---------------------------------------------------------------------------
  1  0.6883E-06  0  0.6176E-12  1  0.1379E-12
   (  1,  1, 42)  (  1,  1, 37)  (  1,  1, 42)



 NO OUTPUT CONTROL FOR STRESS PERIOD    2   TIME STEP   56
 SOLVING FOR ZETA FOR LAYER     1 ZONE     2
 
 SOLVING FOR HEAD 
     2 CALLS TO PCG ROUTINE FOR TIME STEP  57 IN STRESS PERIOD    2
     3 TOTAL ITERATIONS

 MAXIMUM HEAD CHANGE FOR EACH ITERATION (1 INDICATES THE FIRST INNER ITERATION):

    HEAD CHANGE    HEAD CHANGE    HEAD CHANGE    HEAD CHANGE    HEAD CHANGE 
   LAYER,ROW,COL  LAYER,ROW,COL  LAYER,ROW,COL  LAYER,ROW,COL  LAYER,ROW,COL
 ---------------------------------------------------------------------------
  1  0.2698      0  0.2737E-05  1 -0.3640E-08
   (  1,  1, 38)  (  1,  1,  1)  (  1,  1, 42)

 MAXIMUM RESIDUAL FOR EACH ITERATION (1 INDICATES THE FIRST INNER ITERATION):

    RESIDUAL       RESIDUAL       RESIDUAL       RESIDUAL       RESIDUAL    
   LAYER,ROW,COL  LAYER,ROW,COL  LAYER,ROW,COL  LAYER,ROW,COL  LAYER,ROW,COL
 ---------------------------------------------------------------------------
  1 -0.7202E-06  0 -0.6307E-12  1 -0.1061E-13
   (  1,  1, 42)  (  1,  1, 37)  (  1,  1, 42)



 NO OUTPUT CONTROL FOR STRESS PERIOD    2   TIME STEP   57
 SOLVING FOR ZETA FOR LAYER     1 ZONE     2
 
 SOLVING FOR HEAD 
     2 CALLS TO PCG ROUTINE FOR TIME STEP  58 IN STRESS PERIOD    2
     3 TOTAL ITERATIONS

 MAXIMUM HEAD CHANGE FOR EACH ITERATION (1 INDICATES THE FIRST INNER ITERATION):

    HEAD CHANGE    HEAD CHANGE    HEAD CHANGE    HEAD CHANGE    HEAD CHANGE 
   LAYER,ROW,COL  LAYER,ROW,COL  LAYER,ROW,COL  LAYER,ROW,COL  LAYER,ROW,COL
 ---------------------------------------------------------------------------
  1 -0.2680      0 -0.2720E-05  1  0.3640E-08
   (  1,  1, 39)  (  1,  1,  1)  (  1,  1, 42)

 MAXIMUM RESIDUAL FOR EACH ITERATION (1 INDICATES THE FIRST INNER ITERATION):

    RESIDUAL       RESIDUAL       RESIDUAL       RESIDUAL       RESIDUAL    
   LAYER,ROW,COL  LAYER,ROW,COL  LAYER,ROW,COL  LAYER,ROW,COL  LAYER,ROW,COL
 ---------------------------------------------------------------------------
  1  0.7074E-06  0  0.6270E-12  1  0.1061E-13
   (  1,  1, 42)  (  1,  1, 37)  (  1,  1, 42)



 NO OUTPUT CONTROL FOR STRESS PERIOD    2   TIME STEP   58
 SOLVING FOR ZETA FOR LAYER     1 ZONE     2
 
 SOLVING FOR HEAD 
     2 CALLS TO PCG ROUTINE FOR TIME STEP  59 IN STRESS PERIOD    2
     3 TOTAL ITERATIONS

 MAXIMUM HEAD CHANGE FOR EACH ITERATION (1 INDICATES THE FIRST INNER ITERATION):

    HEAD CHANGE    HEAD CHANGE    HEAD CHANGE    HEAD CHANGE    HEAD CHANGE 
   LAYER,ROW,COL  LAYER,ROW,COL  LAYER,ROW,COL  LAYER,ROW,COL  LAYER,ROW,COL
 ---------------------------------------------------------------------------
  1  0.2735      0  0.2773E-05  1  0.4004E-07
   (  1,  1, 38)  (  1,  1,  1)  (  1,  1, 42)

 MAXIMUM RESIDUAL FOR EACH ITERATION (1 INDICATES THE FIRST INNER ITERATION):

    RESIDUAL       RESIDUAL       RESIDUAL       RESIDUAL       RESIDUAL    
   LAYER,ROW,COL  LAYER,ROW,COL  LAYER,ROW,COL  LAYER,ROW,COL  LAYER,ROW,COL
 ---------------------------------------------------------------------------
  1 -0.7370E-06  0 -0.6393E-12  1  0.1167E-12
   (  1,  1, 42)  (  1,  1, 37)  (  1,  1, 42)



 NO OUTPUT CONTROL FOR STRESS PERIOD    2   TIME STEP   59
 SOLVING FOR ZETA FOR LAYER     1 ZONE     2
 
 SOLVING FOR HEAD 
     2 CALLS TO PCG ROUTINE FOR TIME STEP  60 IN STRESS PERIOD    2
     3 TOTAL ITERATIONS

 MAXIMUM HEAD CHANGE FOR EACH ITERATION (1 INDICATES THE FIRST INNER ITERATION):

    HEAD CHANGE    HEAD CHANGE    HEAD CHANGE    HEAD CHANGE    HEAD CHANGE 
   LAYER,ROW,COL  LAYER,ROW,COL  LAYER,ROW,COL  LAYER,ROW,COL  LAYER,ROW,COL
 ---------------------------------------------------------------------------
  1 -0.2714      0 -0.2755E-05  1 -0.4004E-07
   (  1,  1, 39)  (  1,  1,  1)  (  1,  1, 42)

 MAXIMUM RESIDUAL FOR EACH ITERATION (1 INDICATES THE FIRST INNER ITERATION):

    RESIDUAL       RESIDUAL       RESIDUAL       RESIDUAL       RESIDUAL    
   LAYER,ROW,COL  LAYER,ROW,COL  LAYER,ROW,COL  LAYER,ROW,COL  LAYER,ROW,COL
 ---------------------------------------------------------------------------
  1  0.7256E-06  0  0.6361E-12  1 -0.1167E-12
   (  1,  1, 42)  (  1,  1, 37)  (  1,  1, 42)



 NO OUTPUT CONTROL FOR STRESS PERIOD    2   TIME STEP   60
 SOLVING FOR ZETA FOR LAYER     1 ZONE     2
 
 SOLVING FOR HEAD 
     2 CALLS TO PCG ROUTINE FOR TIME STEP  61 IN STRESS PERIOD    2
     3 TOTAL ITERATIONS

 MAXIMUM HEAD CHANGE FOR EACH ITERATION (1 INDICATES THE FIRST INNER ITERATION):

    HEAD CHANGE    HEAD CHANGE    HEAD CHANGE    HEAD CHANGE    HEAD CHANGE 
   LAYER,ROW,COL  LAYER,ROW,COL  LAYER,ROW,COL  LAYER,ROW,COL  LAYER,ROW,COL
 ---------------------------------------------------------------------------
  1  0.2771      0  0.2807E-05  1 -0.3640E-07
   (  1,  1, 38)  (  1,  1,  1)  (  1,  1, 42)

 MAXIMUM RESIDUAL FOR EACH ITERATION (1 INDICATES THE FIRST INNER ITERATION):

    RESIDUAL       RESIDUAL       RESIDUAL       RESIDUAL       RESIDUAL    
   LAYER,ROW,COL  LAYER,ROW,COL  LAYER,ROW,COL  LAYER,ROW,COL  LAYER,ROW,COL
 ---------------------------------------------------------------------------
  1 -0.7534E-06  0 -0.6477E-12  1 -0.1061E-12
   (  1,  1, 42)  (  1,  1, 37)  (  1,  1, 42)



 NO OUTPUT CONTROL FOR STRESS PERIOD    2   TIME STEP   61
 SOLVING FOR ZETA FOR LAYER     1 ZONE     2
 
 SOLVING FOR HEAD 
     2 CALLS TO PCG ROUTINE FOR TIME STEP  62 IN STRESS PERIOD    2
     3 TOTAL ITERATIONS

 MAXIMUM HEAD CHANGE FOR EACH ITERATION (1 INDICATES THE FIRST INNER ITERATION):

    HEAD CHANGE    HEAD CHANGE    HEAD CHANGE    HEAD CHANGE    HEAD CHANGE 
[...]
   (  1,  1, 38)  (  1,  1,  1)  (  1,  1, 42)

 MAXIMUM RESIDUAL FOR EACH ITERATION (1 INDICATES THE FIRST INNER ITERATION):

    RESIDUAL       RESIDUAL       RESIDUAL       RESIDUAL       RESIDUAL    
   LAYER,ROW,COL  LAYER,ROW,COL  LAYER,ROW,COL  LAYER,ROW,COL  LAYER,ROW,COL
 ---------------------------------------------------------------------------
  1 -0.9664E-06  0 -0.7810E-12  1 -0.4244E-13
   (  1,  1, 42)  (  1,  1, 37)  (  1,  1, 42)



 NO OUTPUT CONTROL FOR STRESS PERIOD    2   TIME STEP   87
 SOLVING FOR ZETA FOR LAYER     1 ZONE     2
 
 SOLVING FOR HEAD 
     2 CALLS TO PCG ROUTINE FOR TIME STEP  88 IN STRESS PERIOD    2
     3 TOTAL ITERATIONS

 MAXIMUM HEAD CHANGE FOR EACH ITERATION (1 INDICATES THE FIRST INNER ITERATION):

    HEAD CHANGE    HEAD CHANGE    HEAD CHANGE    HEAD CHANGE    HEAD CHANGE 
   LAYER,ROW,COL  LAYER,ROW,COL  LAYER,ROW,COL  LAYER,ROW,COL  LAYER,ROW,COL
 ---------------------------------------------------------------------------
  1 -0.3307      0 -0.3327E-05  1  0.1456E-07
   (  1,  1, 39)  (  1,  1,  1)  (  1,  1, 42)

 MAXIMUM RESIDUAL FOR EACH ITERATION (1 INDICATES THE FIRST INNER ITERATION):

    RESIDUAL       RESIDUAL       RESIDUAL       RESIDUAL       RESIDUAL    
   LAYER,ROW,COL  LAYER,ROW,COL  LAYER,ROW,COL  LAYER,ROW,COL  LAYER,ROW,COL
 ---------------------------------------------------------------------------
  1  0.9640E-06  0  0.7776E-12  1  0.4244E-13
   (  1,  1, 42)  (  1,  1, 37)  (  1,  1, 42)



 NO OUTPUT CONTROL FOR STRESS PERIOD    2   TIME STEP   88
 SOLVING FOR ZETA FOR LAYER     1 ZONE     2
 
 SOLVING FOR HEAD 
     2 CALLS TO PCG ROUTINE FOR TIME STEP  89 IN STRESS PERIOD    2
     3 TOTAL ITERATIONS

 MAXIMUM HEAD CHANGE FOR EACH ITERATION (1 INDICATES THE FIRST INNER ITERATION):

    HEAD CHANGE    HEAD CHANGE    HEAD CHANGE    HEAD CHANGE    HEAD CHANGE 
   LAYER,ROW,COL  LAYER,ROW,COL  LAYER,ROW,COL  LAYER,ROW,COL  LAYER,ROW,COL
 ---------------------------------------------------------------------------
  1  0.3377      0  0.3394E-05  1  0.4368E-07
   (  1,  1, 38)  (  1,  1,  1)  (  1,  1, 42)

 MAXIMUM RESIDUAL FOR EACH ITERATION (1 INDICATES THE FIRST INNER ITERATION):

    RESIDUAL       RESIDUAL       RESIDUAL       RESIDUAL       RESIDUAL    
   LAYER,ROW,COL  LAYER,ROW,COL  LAYER,ROW,COL  LAYER,ROW,COL  LAYER,ROW,COL
 ---------------------------------------------------------------------------
  1 -0.9821E-06  0 -0.7941E-12  1  0.1273E-12
   (  1,  1, 42)  (  1,  1, 37)  (  1,  1, 42)



 NO OUTPUT CONTROL FOR STRESS PERIOD    2   TIME STEP   89
 SOLVING FOR ZETA FOR LAYER     1 ZONE     2
 
 SOLVING FOR HEAD 
     2 CALLS TO PCG ROUTINE FOR TIME STEP  90 IN STRESS PERIOD    2
     3 TOTAL ITERATIONS

 MAXIMUM HEAD CHANGE FOR EACH ITERATION (1 INDICATES THE FIRST INNER ITERATION):

    HEAD CHANGE    HEAD CHANGE    HEAD CHANGE    HEAD CHANGE    HEAD CHANGE 
   LAYER,ROW,COL  LAYER,ROW,COL  LAYER,ROW,COL  LAYER,ROW,COL  LAYER,ROW,COL
 ---------------------------------------------------------------------------
  1 -0.3363      0 -0.3380E-05  1 -0.4368E-07
   (  1,  1, 39)  (  1,  1,  1)  (  1,  1, 42)

 MAXIMUM RESIDUAL FOR EACH ITERATION (1 INDICATES THE FIRST INNER ITERATION):

    RESIDUAL       RESIDUAL       RESIDUAL       RESIDUAL       RESIDUAL    
   LAYER,ROW,COL  LAYER,ROW,COL  LAYER,ROW,COL  LAYER,ROW,COL  LAYER,ROW,COL
 ---------------------------------------------------------------------------
  1  0.9799E-06  0  0.7906E-12  1 -0.1273E-12
   (  1,  1, 42)  (  1,  1, 37)  (  1,  1, 42)



 NO OUTPUT CONTROL FOR STRESS PERIOD    2   TIME STEP   90
 SOLVING FOR ZETA FOR LAYER     1 ZONE     2
 
 SOLVING FOR HEAD 
     2 CALLS TO PCG ROUTINE FOR TIME STEP  91 IN STRESS PERIOD    2
     3 TOTAL ITERATIONS

 MAXIMUM HEAD CHANGE FOR EACH ITERATION (1 INDICATES THE FIRST INNER ITERATION):

    HEAD CHANGE    HEAD CHANGE    HEAD CHANGE    HEAD CHANGE    HEAD CHANGE 
   LAYER,ROW,COL  LAYER,ROW,COL  LAYER,ROW,COL  LAYER,ROW,COL  LAYER,ROW,COL
 ---------------------------------------------------------------------------
  1  0.3434      0  0.3449E-05  1 -0.1092E-07
   (  1,  1, 38)  (  1,  1,  1)  (  1,  1, 42)

 MAXIMUM RESIDUAL FOR EACH ITERATION (1 INDICATES THE FIRST INNER ITERATION):

    RESIDUAL       RESIDUAL       RESIDUAL       RESIDUAL       RESIDUAL    
   LAYER,ROW,COL  LAYER,ROW,COL  LAYER,ROW,COL  LAYER,ROW,COL  LAYER,ROW,COL
 ---------------------------------------------------------------------------
  1 -0.9973E-06  0 -0.8075E-12  1 -0.3183E-13
   (  1,  1, 42)  (  1,  1, 37)  (  1,  1, 42)



 NO OUTPUT CONTROL FOR STRESS PERIOD    2   TIME STEP   91
 SOLVING FOR ZETA FOR LAYER     1 ZONE     2
 
 SOLVING FOR HEAD 
     2 CALLS TO PCG ROUTINE FOR TIME STEP  92 IN STRESS PERIOD    2
     3 TOTAL ITERATIONS

 MAXIMUM HEAD CHANGE FOR EACH ITERATION (1 INDICATES THE FIRST INNER ITERATION):

    HEAD CHANGE    HEAD CHANGE    HEAD CHANGE    HEAD CHANGE    HEAD CHANGE 
   LAYER,ROW,COL  LAYER,ROW,COL  LAYER,ROW,COL  LAYER,ROW,COL  LAYER,ROW,COL
 ---------------------------------------------------------------------------
  1 -0.3421      0 -0.3435E-05  1  0.1092E-07
   (  1,  1, 39)  (  1,  1,  1)  (  1,  1, 42)

 MAXIMUM RESIDUAL FOR EACH ITERATION (1 INDICATES THE FIRST INNER ITERATION):

    RESIDUAL       RESIDUAL       RESIDUAL       RESIDUAL       RESIDUAL    
   LAYER,ROW,COL  LAYER,ROW,COL  LAYER,ROW,COL  LAYER,ROW,COL  LAYER,ROW,COL
 ---------------------------------------------------------------------------
  1  0.9952E-06  0  0.8040E-12  1  0.3183E-13
   (  1,  1, 42)  (  1,  1, 37)  (  1,  1, 42)



 NO OUTPUT CONTROL FOR STRESS PERIOD    2   TIME STEP   92
 SOLVING FOR ZETA FOR LAYER     1 ZONE     2
 
 SOLVING FOR HEAD 
     2 CALLS TO PCG ROUTINE FOR TIME STEP  93 IN STRESS PERIOD    2
     3 TOTAL ITERATIONS

 MAXIMUM HEAD CHANGE FOR EACH ITERATION (1 INDICATES THE FIRST INNER ITERATION):

    HEAD CHANGE    HEAD CHANGE    HEAD CHANGE    HEAD CHANGE    HEAD CHANGE 
   LAYER,ROW,COL  LAYER,ROW,COL  LAYER,ROW,COL  LAYER,ROW,COL  LAYER,ROW,COL
 ---------------------------------------------------------------------------
  1  0.3492      0  0.3505E-05  1  0.5096E-07
   (  1,  1, 38)  (  1,  1,  1)  (  1,  1, 42)

 MAXIMUM RESIDUAL FOR EACH ITERATION (1 INDICATES THE FIRST INNER ITERATION):

    RESIDUAL       RESIDUAL       RESIDUAL       RESIDUAL       RESIDUAL    
   LAYER,ROW,COL  LAYER,ROW,COL  LAYER,ROW,COL  LAYER,ROW,COL  LAYER,ROW,COL
 ---------------------------------------------------------------------------
  1 -0.1012E-05  0 -0.8214E-12  1  0.1485E-12
   (  1,  1, 42)  (  1,  1, 37)  (  1,  1, 42)



 NO OUTPUT CONTROL FOR STRESS PERIOD    2   TIME STEP   93
 SOLVING FOR ZETA FOR LAYER     1 ZONE     2
 
 SOLVING FOR HEAD 
     2 CALLS TO PCG ROUTINE FOR TIME STEP  94 IN STRESS PERIOD    2
     3 TOTAL ITERATIONS

 MAXIMUM HEAD CHANGE FOR EACH ITERATION (1 INDICATES THE FIRST INNER ITERATION):

    HEAD CHANGE    HEAD CHANGE    HEAD CHANGE    HEAD CHANGE    HEAD CHANGE 
   LAYER,ROW,COL  LAYER,ROW,COL  LAYER,ROW,COL  LAYER,ROW,COL  LAYER,ROW,COL
 ---------------------------------------------------------------------------
  1 -0.3480      0 -0.3491E-05  1 -0.5096E-07
   (  1,  1, 39)  (  1,  1,  1)  (  1,  1, 42)

 MAXIMUM RESIDUAL FOR EACH ITERATION (1 INDICATES THE FIRST INNER ITERATION):

    RESIDUAL       RESIDUAL       RESIDUAL       RESIDUAL       RESIDUAL    
   LAYER,ROW,COL  LAYER,ROW,COL  LAYER,ROW,COL  LAYER,ROW,COL  LAYER,ROW,COL
 ---------------------------------------------------------------------------
  1  0.1010E-05  0  0.8178E-12  1 -0.1485E-12
   (  1,  1, 42)  (  1,  1, 37)  (  1,  1, 42)



 NO OUTPUT CONTROL FOR STRESS PERIOD    2   TIME STEP   94
 SOLVING FOR ZETA FOR LAYER     1 ZONE     2
 
 SOLVING FOR HEAD 
     2 CALLS TO PCG ROUTINE FOR TIME STEP  95 IN STRESS PERIOD    2
     3 TOTAL ITERATIONS

 MAXIMUM HEAD CHANGE FOR EACH ITERATION (1 INDICATES THE FIRST INNER ITERATION):

    HEAD CHANGE    HEAD CHANGE    HEAD CHANGE    HEAD CHANGE    HEAD CHANGE 
   LAYER,ROW,COL  LAYER,ROW,COL  LAYER,ROW,COL  LAYER,ROW,COL  LAYER,ROW,COL
 ---------------------------------------------------------------------------
  1  0.3552      0  0.3562E-05  1 -0.7826E-12
   (  1,  1, 38)  (  1,  1,  1)  (  1,  1, 28)

 MAXIMUM RESIDUAL FOR EACH ITERATION (1 INDICATES THE FIRST INNER ITERATION):

    RESIDUAL       RESIDUAL       RESIDUAL       RESIDUAL       RESIDUAL    
   LAYER,ROW,COL  LAYER,ROW,COL  LAYER,ROW,COL  LAYER,ROW,COL  LAYER,ROW,COL
 ---------------------------------------------------------------------------
  1 -0.1025E-05  0 -0.8355E-12  1  0.6253E-18
   (  1,  1, 42)  (  1,  1, 37)  (  1,  1, 37)



 NO OUTPUT CONTROL FOR STRESS PERIOD    2   TIME STEP   95
 SOLVING FOR ZETA FOR LAYER     1 ZONE     2
 
 SOLVING FOR HEAD 
     2 CALLS TO PCG ROUTINE FOR TIME STEP  96 IN STRESS PERIOD    2
     3 TOTAL ITERATIONS

 MAXIMUM HEAD CHANGE FOR EACH ITERATION (1 INDICATES THE FIRST INNER ITERATION):

    HEAD CHANGE    HEAD CHANGE    HEAD CHANGE    HEAD CHANGE    HEAD CHANGE 
   LAYER,ROW,COL  LAYER,ROW,COL  LAYER,ROW,COL  LAYER,ROW,COL  LAYER,ROW,COL
 ---------------------------------------------------------------------------
  1 -0.3541      0 -0.3549E-05  1 -0.8129E-12
   (  1,  1, 39)  (  1,  1,  1)  (  1,  1,  1)

 MAXIMUM RESIDUAL FOR EACH ITERATION (1 INDICATES THE FIRST INNER ITERATION):

    RESIDUAL       RESIDUAL       RESIDUAL       RESIDUAL       RESIDUAL    
   LAYER,ROW,COL  LAYER,ROW,COL  LAYER,ROW,COL  LAYER,ROW,COL  LAYER,ROW,COL
 ---------------------------------------------------------------------------
  1  0.1023E-05  0  0.8320E-12  1 -0.6321E-18
   (  1,  1, 42)  (  1,  1, 37)  (  1,  1, 37)



 NO OUTPUT CONTROL FOR STRESS PERIOD    2   TIME STEP   96
 SOLVING FOR ZETA FOR LAYER     1 ZONE     2
 
 SOLVING FOR HEAD 
     2 CALLS TO PCG ROUTINE FOR TIME STEP  97 IN STRESS PERIOD    2
     3 TOTAL ITERATIONS

 MAXIMUM HEAD CHANGE FOR EACH ITERATION (1 INDICATES THE FIRST INNER ITERATION):

    HEAD CHANGE    HEAD CHANGE    HEAD CHANGE    HEAD CHANGE    HEAD CHANGE 
   LAYER,ROW,COL  LAYER,ROW,COL  LAYER,ROW,COL  LAYER,ROW,COL  LAYER,ROW,COL
 ---------------------------------------------------------------------------
  1  0.3613      0  0.3622E-05  1 -0.5096E-07
   (  1,  1, 38)  (  1,  1,  1)  (  1,  1, 42)

 MAXIMUM RESIDUAL FOR EACH ITERATION (1 INDICATES THE FIRST INNER ITERATION):

    RESIDUAL       RESIDUAL       RESIDUAL       RESIDUAL       RESIDUAL    
   LAYER,ROW,COL  LAYER,ROW,COL  LAYER,ROW,COL  LAYER,ROW,COL  LAYER,ROW,COL
 ---------------------------------------------------------------------------
  1 -0.1038E-05  0 -0.8500E-12  1 -0.1485E-12
   (  1,  1, 42)  (  1,  1, 37)  (  1,  1, 42)



 NO OUTPUT CONTROL FOR STRESS PERIOD    2   TIME STEP   97
 SOLVING FOR ZETA FOR LAYER     1 ZONE     2
 
 SOLVING FOR HEAD 
     2 CALLS TO PCG ROUTINE FOR TIME STEP  98 IN STRESS PERIOD    2
     3 TOTAL ITERATIONS

 MAXIMUM HEAD CHANGE FOR EACH ITERATION (1 INDICATES THE FIRST INNER ITERATION):

    HEAD CHANGE    HEAD CHANGE    HEAD CHANGE    HEAD CHANGE    HEAD CHANGE 
   LAYER,ROW,COL  LAYER,ROW,COL  LAYER,ROW,COL  LAYER,ROW,COL  LAYER,ROW,COL
 ---------------------------------------------------------------------------
  1 -0.3603      0 -0.3608E-05  1  0.5096E-07
   (  1,  1, 39)  (  1,  1,  1)  (  1,  1, 42)

 MAXIMUM RESIDUAL FOR EACH ITERATION (1 INDICATES THE FIRST INNER ITERATION):

    RESIDUAL       RESIDUAL       RESIDUAL       RESIDUAL       RESIDUAL    
   LAYER,ROW,COL  LAYER,ROW,COL  LAYER,ROW,COL  LAYER,ROW,COL  LAYER,ROW,COL
 ---------------------------------------------------------------------------
  1  0.1036E-05  0  0.8466E-12  1  0.1485E-12
   (  1,  1, 42)  (  1,  1, 37)  (  1,  1, 42)



 NO OUTPUT CONTROL FOR STRESS PERIOD    2   TIME STEP   98
 SOLVING FOR ZETA FOR LAYER     1 ZONE     2
 
 SOLVING FOR HEAD 
     2 CALLS TO PCG ROUTINE FOR TIME STEP  99 IN STRESS PERIOD    2
     3 TOTAL ITERATIONS

 MAXIMUM HEAD CHANGE FOR EACH ITERATION (1 INDICATES THE FIRST INNER ITERATION):

    HEAD CHANGE    HEAD CHANGE    HEAD CHANGE    HEAD CHANGE    HEAD CHANGE 
   LAYER,ROW,COL  LAYER,ROW,COL  LAYER,ROW,COL  LAYER,ROW,COL  LAYER,ROW,COL
 ---------------------------------------------------------------------------
  1  0.3676      0  0.3683E-05  1  0.1820E-07
   (  1,  1, 38)  (  1,  1,  1)  (  1,  1, 42)

 MAXIMUM RESIDUAL FOR EACH ITERATION (1 INDICATES THE FIRST INNER ITERATION):

    RESIDUAL       RESIDUAL       RESIDUAL       RESIDUAL       RESIDUAL    
   LAYER,ROW,COL  LAYER,ROW,COL  LAYER,ROW,COL  LAYER,ROW,COL  LAYER,ROW,COL
 ---------------------------------------------------------------------------
  1 -0.1050E-05  0 -0.8649E-12  1  0.5305E-13
   (  1,  1, 42)  (  1,  1, 37)  (  1,  1, 42)



 NO OUTPUT CONTROL FOR STRESS PERIOD    2   TIME STEP   99
 SOLVING FOR ZETA FOR LAYER     1 ZONE     2
 
 SOLVING FOR HEAD 
     2 CALLS TO PCG ROUTINE FOR TIME STEP 100 IN STRESS PERIOD    2
     3 TOTAL ITERATIONS

 MAXIMUM HEAD CHANGE FOR EACH ITERATION (1 INDICATES THE FIRST INNER ITERATION):

    HEAD CHANGE    HEAD CHANGE    HEAD CHANGE    HEAD CHANGE    HEAD CHANGE 
   LAYER,ROW,COL  LAYER,ROW,COL  LAYER,ROW,COL  LAYER,ROW,COL  LAYER,ROW,COL
 ---------------------------------------------------------------------------
  1 -0.5250      0 -0.4862E-05  1 -0.1820E-07
   (  1,  1, 40)  (  1,  1,  1)  (  1,  1, 42)

 MAXIMUM RESIDUAL FOR EACH ITERATION (1 INDICATES THE FIRST INNER ITERATION):

    RESIDUAL       RESIDUAL       RESIDUAL       RESIDUAL       RESIDUAL    
   LAYER,ROW,COL  LAYER,ROW,COL  LAYER,ROW,COL  LAYER,ROW,COL  LAYER,ROW,COL
 ---------------------------------------------------------------------------
  1 -0.1136E-05  0  0.1114E-11  1 -0.5305E-13
   (  1,  1, 40)  (  1,  1, 37)  (  1,  1, 42)



 OUTPUT CONTROL FOR STRESS PERIOD    2   TIME STEP  100
    SAVE HEAD FOR ALL LAYERS
    SAVE BUDGET
 SOLVING FOR ZETA FOR LAYER     1 ZONE     2


                      VOLUMETRIC SWI ZONE BUDGET FOR ENTIRE MODEL
                     AT END OF TIME STEP  100 IN STRESS PERIOD   2
                                      ZONE     1
  -----------------------------------------------------------------------------------

        CUMULATIVE VOLUMES      L**3       RATES FOR THIS TIME STEP      L**3/T
        ------------------                 ------------------------

              IN:                                      IN:
              ---                                      ---
             BOUNDARIES =        8733.2529            BOUNDARIES =           2.4000
          CONSTANT HEAD =       27547.3320         CONSTANT HEAD =           7.5399
            ZONE CHANGE =        1089.7716           ZONE CHANGE =           0.8823
       ZONE CHG TIP/TOE =        4388.0527      ZONE CHG TIP/TOE =           2.5608
            ZONE MIXING =           0.0000           ZONE MIXING =           0.0000

               TOTAL IN =       41758.4141              TOTAL IN =          13.3831

             OUT:                                     OUT:
             ----                                     ----
             BOUNDARIES =       17795.5723            BOUNDARIES =           9.9500
          CONSTANT HEAD =           2.4500         CONSTANT HEAD =           0.0000
            ZONE CHANGE =       13296.3408           ZONE CHANGE =           3.3646
       ZONE CHG TIP/TOE =         301.3208      ZONE CHG TIP/TOE =           0.1027
            ZONE MIXING =           0.0000           ZONE MIXING =           0.0000

              TOTAL OUT =       31395.6836             TOTAL OUT =          13.4173

               IN - OUT =       10362.7305              IN - OUT =      -3.4251E-02

    PERCENT DISCREPANCY =          28.33     PERCENT DISCREPANCY =          -0.26



                      VOLUMETRIC SWI ZONE BUDGET FOR ENTIRE MODEL
                     AT END OF TIME STEP  100 IN STRESS PERIOD   2
                                      ZONE     2
  -----------------------------------------------------------------------------------

        CUMULATIVE VOLUMES      L**3       RATES FOR THIS TIME STEP      L**3/T
        ------------------                 ------------------------

              IN:                                      IN:
              ---                                      ---
             BOUNDARIES =          29.2000            BOUNDARIES =           0.0000
          CONSTANT HEAD =           0.0000         CONSTANT HEAD =           0.0000
            ZONE CHANGE =        8987.0293           ZONE CHANGE =           0.8472
       ZONE CHG TIP/TOE =        6512.3423      ZONE CHG TIP/TOE =           2.5950
            ZONE MIXING =           0.0000           ZONE MIXING =           0.0000

               TOTAL IN =       15528.5723              TOTAL IN =           3.4422

             OUT:                                     OUT:
             ----                                     ----
             BOUNDARIES =       18521.9238            BOUNDARIES =           0.0000
          CONSTANT HEAD =           0.0000         CONSTANT HEAD =           0.0000
            ZONE CHANGE =        7298.9385           ZONE CHANGE =           3.3737
       ZONE CHG TIP/TOE =          70.4298      ZONE CHG TIP/TOE =       3.4247E-02
            ZONE MIXING =           0.0000           ZONE MIXING =           0.0000

              TOTAL OUT =       25891.2930             TOTAL OUT =           3.4079

               IN - OUT =      -10362.7207              IN - OUT =       3.4250E-02

    PERCENT DISCREPANCY =         -50.04     PERCENT DISCREPANCY =           1.00


 HEAD WILL BE SAVED ON UNIT   51 AT END OF TIME STEP  100, STRESS PERIOD    2
1
  VOLUMETRIC BUDGET FOR ENTIRE MODEL AT END OF TIME STEP  100, STRESS PERIOD   2
  ------------------------------------------------------------------------------

     CUMULATIVE VOLUMES      L**3       RATES FOR THIS TIME STEP      L**3/T
     ------------------                 ------------------------

           IN:                                      IN:
           ---                                      ---
             STORAGE =          19.8256               STORAGE =       1.0108E-02
       CONSTANT HEAD =       27656.0859         CONSTANT HEAD =           7.5399
          SWIADDTOCH =           0.0000            SWIADDTOCH =           0.0000
               WELLS =           0.0000                 WELLS =           0.0000
            RECHARGE =        8944.9414              RECHARGE =           2.4500

            TOTAL IN =       36620.8516              TOTAL IN =          10.0000

          OUT:                                     OUT:
          ----                                     ----
             STORAGE =           9.6514               STORAGE =       4.3829E-05
       CONSTANT HEAD =           1.1828         CONSTANT HEAD =           0.0000
          SWIADDTOCH =         110.0208            SWIADDTOCH =           0.0000
               WELLS =       36500.0000                 WELLS =          10.0000
            RECHARGE =           0.0000              RECHARGE =           0.0000

           TOTAL OUT =       36620.8555             TOTAL OUT =          10.0000

            IN - OUT =      -3.9062E-03              IN - OUT =           0.0000

 PERCENT DISCREPANCY =          -0.00     PERCENT DISCREPANCY =           0.00






         TIME SUMMARY AT END OF TIME STEP  100 IN STRESS PERIOD    2
                    SECONDS     MINUTES      HOURS       DAYS        YEARS
                    -----------------------------------------------------------
   TIME STEP LENGTH 3.15360E+06  52560.      876.00      36.500     9.99316E-02
 STRESS PERIOD TIME 3.15360E+08 5.25600E+06  87600.      3650.0      9.9932    
         TOTAL TIME 3.15446E+08 5.25744E+06  87624.      3651.0      9.9959    
1

 Run end date and time (yyyy/mm/dd hh:mm:ss): 2025/08/08  9:11:42
 Elapsed run time:  0.006 Seconds

