                                  MODFLOW-2005     
      U.S. GEOLOGICAL SURVEY MODULAR FINITE-DIFFERENCE GROUND-WATER FLOW MODEL
                            VERSION 1.12.00 2/3/2017

 LIST FILE: swi2_demo.list
                         UNIT    2

 OPENING swi2_demo.dis
 FILE TYPE:DIS   UNIT   11   STATUS:OLD    
 FORMAT:FORMATTED              ACCESS:SEQUENTIAL          

 OPENING swi2_demo.bas
 FILE TYPE:BAS6   UNIT   13   STATUS:OLD    
 FORMAT:FORMATTED              ACCESS:SEQUENTIAL          

 OPENING swi2_demo.lpf
 FILE TYPE:LPF   UNIT   15   STATUS:OLD    
 FORMAT:FORMATTED              ACCESS:SEQUENTIAL          

 OPENING swi2_demo.rch
 FILE TYPE:RCH   UNIT   19   STATUS:OLD    
 FORMAT:FORMATTED              ACCESS:SEQUENTIAL          

 OPENING swi2_demo.wel
 FILE TYPE:WEL   UNIT   20   STATUS:OLD    
 FORMAT:FORMATTED              ACCESS:SEQUENTIAL          

 OPENING swi2_demo.swi2
 FILE TYPE:SWI2   UNIT   29   STATUS:OLD    
 FORMAT:FORMATTED              ACCESS:SEQUENTIAL          

 OPENING swi2_demo.pcg
 FILE TYPE:PCG   UNIT   27   STATUS:OLD    
 FORMAT:FORMATTED              ACCESS:SEQUENTIAL          

 OPENING swi2_demo.oc
 FILE TYPE:OC   UNIT   14   STATUS:OLD    
 FORMAT:FORMATTED              ACCESS:SEQUENTIAL          

 OPENING swi2_demo.hds
 FILE TYPE:DATA(BINARY)   UNIT   51   STATUS:REPLACE
 FORMAT:UNFORMATTED            ACCESS:STREAM              

 BAS -- BASIC PACKAGE, VERSION 7, 5/2/2005 INPUT READ FROM UNIT   13
 
 MODFLOW was compiled using mixed precision
 Precision of REAL variables:           6
 Precision of DOUBLE PRECISION variables:          15

 DISCRETIZATION INPUT DATA READ FROM UNIT   11
 # DIS package for MODFLOW-2005 generated by Flopy 3.9.3
    1 LAYERS         1 ROWS        50 COLUMNS
    2 STRESS PERIOD(S) IN SIMULATION
 MODEL TIME UNIT IS DAYS
 MODEL LENGTH UNIT IS METERS
  Confining bed flag for each layer:
   0

                     DELR =   50.0000    

                     DELC =   1.00000    

 TOP ELEVATION OF LAYER 1 =   0.00000    

   MODEL LAYER BOTTOM EL. =  -40.0000     FOR LAYER   1


 STRESS PERIOD     LENGTH       TIME STEPS     MULTIPLIER FOR DELT    SS FLAG
 ----------------------------------------------------------------------------
        1         1.000000          1                    1.000         SS
        2         3650.000        100                    1.000         TR

 COMBINED STEADY-STATE AND TRANSIENT SIMULATION



 
 # BAS6 package for MODFLOW-2005 generated by Flopy 3.9.3                        
 THE FREE FORMAT OPTION HAS BEEN SELECTED



                     BOUNDARY ARRAY FOR LAYER   1
 READING ON UNIT   13 WITH FORMAT: (50I10)             

 AQUIFER HEAD WILL BE SET TO  -999.99     AT ALL NO-FLOW NODES (IBOUND=0).



                       INITIAL HEAD FOR LAYER   1
 READING ON UNIT   13 WITH FORMAT: (50E15.6)           
 # OC package for MODFLOW-2005 generated by Flopy 3.9.3

 OUTPUT CONTROL IS SPECIFIED ONLY AT TIME STEPS FOR WHICH OUTPUT IS DESIRED
 COMPACT CELL-BY-CELL BUDGET FILES WILL BE WRITTEN
 AUXILIARY DATA WILL BE SAVED IN CELL-BY-CELL BUDGET FILES
 HEAD PRINT FORMAT CODE IS   0    DRAWDOWN PRINT FORMAT CODE IS   0
 HEADS WILL BE SAVED ON UNIT   51    DRAWDOWNS WILL BE SAVED ON UNIT    0

 LPF -- LAYER-PROPERTY FLOW PACKAGE, VERSION 7, 5/2/2005
         INPUT READ FROM UNIT   15
 # LPF package for MODFLOW-2005 generated by Flopy 3.9.3
 HEAD AT CELLS THAT CONVERT TO DRY= -1.00000E+30
 No named parameters

   LAYER FLAGS:
 LAYER       LAYTYP        LAYAVG         CHANI        LAYVKA        LAYWET
 ---------------------------------------------------------------------------
    1             0             0     1.000E+00             0             0

   INTERPRETATION OF LAYER FLAGS:
                        INTERBLOCK     HORIZONTAL    DATA IN
         LAYER TYPE   TRANSMISSIVITY   ANISOTROPY   ARRAY VKA   WETTABILITY
 LAYER      (LAYTYP)      (LAYAVG)       (CHANI)      (LAYVKA)      (LAYWET)
 ---------------------------------------------------------------------------
    1      CONFINED      HARMONIC     1.000E+00    VERTICAL K  NON-WETTABLE

 WETTING CAPABILITY IS NOT ACTIVE IN ANY LAYER

    HYD. COND. ALONG ROWS =   10.0000     FOR LAYER   1

      VERTICAL HYD. COND. =   1.00000     FOR LAYER   1

         SPECIFIC STORAGE =  1.000000E-05 FOR LAYER   1

 WEL -- WELL PACKAGE, VERSION 7, 5/2/2005 INPUT READ FROM UNIT   20
 # WEL package for MODFLOW-2005 generated by Flopy 3.9.3
 No named parameters
 MAXIMUM OF      1 ACTIVE WELLS AT ONE TIME


     0 Well parameters

 RCH -- RECHARGE PACKAGE, VERSION 7, 5/2/2005 INPUT READ FROM UNIT   19
 # RCH package for MODFLOW-2005 generated by Flopy 3.9.3
 No named parameters
 OPTION 3 -- RECHARGE TO HIGHEST ACTIVE NODE IN EACH VERTICAL COLUMN


     0 Recharge parameters

 PCG -- CONJUGATE-GRADIENT SOLUTION PACKAGE, VERSION 7, 5/2/2005
 # PCG package for MODFLOW-2005 generated by Flopy 3.9.3
 MAXIMUM OF    100 CALLS OF SOLUTION ROUTINE
 MAXIMUM OF     50 INTERNAL ITERATIONS PER CALL TO SOLUTION ROUTINE
 MATRIX PRECONDITIONING TYPE :    1



                                    SOLUTION BY THE CONJUGATE-GRADIENT METHOD
                                   -------------------------------------------
                    MAXIMUM NUMBER OF CALLS TO PCG ROUTINE =      100
                        MAXIMUM ITERATIONS PER CALL TO PCG =       50
                               MATRIX PRECONDITIONING TYPE =        1
        RELAXATION FACTOR (ONLY USED WITH PRECOND. TYPE 1) =    0.10000E+01
 PARAMETER OF POLYNOMIAL PRECOND. = 2 (2) OR IS CALCULATED :        0
                         HEAD CHANGE CRITERION FOR CLOSURE =    0.10000E-03
                     RESIDUAL CHANGE CRITERION FOR CLOSURE =    0.10000E-02
            PCG HEAD AND RESIDUAL CHANGE PRINTOUT INTERVAL =      999
     PRINTING FROM SOLVER IS LIMITED(1) OR SUPPRESSED (>1) =        3
                            STEADY-STATE DAMPING PARAMETER =    0.10000E+01
                               TRANSIENT DAMPING PARAMETER =    0.10000E+01


 SWI2 -- SWI PACKAGE, VERSION 2.0.0, 07/22/2013
 --------------------------------------------------
 SWI2 INPUT READ FROM UNIT 29


 # SWI2 package for MODFLOW-2005 generated by Flopy 3.9.3
 # Dataset 1


 SWI2 DATASET 1
 ----------------------------------------------------
 NUMBER OF SURFACES (NSRF):                         1
 TOTAL NUMBER OF ZONES:                             2
 DENSITY DISTRIBUTION OPTION (ISTRAT):              1
   VARIABLE DENSITY FLOW -- ISTRAT = 0
   STRATIFIED FLOW       -- ISTRAT = 1
 NUMBER OF SWI OBSERVATIONS (NOBS):                 0
 ZETA OUTPUT FILE UNIT NUMBER (ISWIZT):             0
 BUDGET OUTPUT FILE UNIT NUMBER (ISWICB):           0
 OBSERVATION OUTPUT FILE UNIT NUMBER (ISWIOBS):     0
 ----------------------------------------------------
 # Dataset 2a


 SWI2 DATASET 2A
 ----------------------------------------------------
 SOLVER (NSOLVER):                                  1
   SOLVER =                      DIRECT SOLVER (DE4)
 SOLVER PRINTOUT INTERVAL (IPRSOL):               999
 SOLVER OUTPUT FLAG (MUTSOL):                       3
   0 = PRINTING EVERY ITERATION
   1 = LIMITED (TOTAL NUMBER OF ITERATIONS)
   2 = NO PRINTING
   3 = ONLY IF CONVERGENCE FAILS
 ----------------------------------------------------
 # Dataset 3a


 SWI2 DATASET 3A
 ----------------------------------------------------
 MAXIMUM TOE SURFACE SLOPE (TOESLOPE):      0.500E-01
 MAXIMUM TIP SURFACE SLOPE (TIPSLOPE):      0.500E-01
 EXCESS SURFACE SLOPE FRACTION (ALPHA):     0.100    
 MINIMUM ZONE THICKNESS FRACTION (BETA):    0.100    
 ----------------------------------------------------



                             NUZONE
 READING ON UNIT   29 WITH FORMAT: (2E15.6)            



                   ZETA SURFACE  1  FOR LAYER   1
 READING ON UNIT   29 WITH FORMAT: (50E15.6)           

                      SSZ =  0.200000     FOR LAYER   1



                            IZONENR FOR LAYER   1
 READING ON UNIT   29 WITH FORMAT: (50I10)             
1
                            STRESS PERIOD NO.    1, LENGTH =   1.000000    
                            -----------------------------------------------

                              NUMBER OF TIME STEPS =     1

                               MULTIPLIER FOR DELT =     1.000

                            INITIAL TIME STEP SIZE =   1.000000    

      0 WELLS



                           RECHARGE
 READING ON UNIT   19 WITH FORMAT: (50E15.6)           
 
 SOLVING FOR HEAD 

 OUTPUT CONTROL FOR STRESS PERIOD    1   TIME STEP    1
    SAVE HEAD FOR ALL LAYERS
    SAVE BUDGET
 SOLVING FOR ZETA FOR LAYER     1 ZONE     2

      25 UPPER PART EQS.        25 LOWER PART EQS.    BAND WIDTH + 1 =    2
 STRESS PERIOD=  1 TIMESTEP=  1 LAYER=  1 ZONE=  2 ACTIVE CELLS=   50 NUMBER OF EQUATIONS=      50


                      VOLUMETRIC SWI ZONE BUDGET FOR ENTIRE MODEL
                     AT END OF TIME STEP    1 IN STRESS PERIOD   1
                                      ZONE     1
  -----------------------------------------------------------------------------------

        CUMULATIVE VOLUMES      L**3       RATES FOR THIS TIME STEP      L**3/T
        ------------------                 ------------------------

              IN:                                      IN:
              ---                                      ---
             BOUNDARIES =           2.4500            BOUNDARIES =           2.4500
          CONSTANT HEAD =           0.0000         CONSTANT HEAD =           0.0000
            ZONE CHANGE =           2.5121           ZONE CHANGE =           2.5121
       ZONE CHG TIP/TOE =           0.0000      ZONE CHG TIP/TOE =           0.0000
            ZONE MIXING =           0.0000           ZONE MIXING =           0.0000

               TOTAL IN =           4.9621              TOTAL IN =           4.9621

             OUT:                                     OUT:
             ----                                     ----
             BOUNDARIES =           0.0000            BOUNDARIES =           0.0000
          CONSTANT HEAD =           2.4500         CONSTANT HEAD =           2.4500
            ZONE CHANGE =           2.5121           ZONE CHANGE =           2.5121
       ZONE CHG TIP/TOE =           0.0000      ZONE CHG TIP/TOE =           0.0000
            ZONE MIXING =           0.0000           ZONE MIXING =           0.0000

              TOTAL OUT =           4.9621             TOTAL OUT =           4.9621

               IN - OUT =      -1.1921E-05              IN - OUT =      -1.1921E-05

    PERCENT DISCREPANCY =          -0.00     PERCENT DISCREPANCY =          -0.00



                      VOLUMETRIC SWI ZONE BUDGET FOR ENTIRE MODEL
                     AT END OF TIME STEP    1 IN STRESS PERIOD   1
                                      ZONE     2
  -----------------------------------------------------------------------------------

        CUMULATIVE VOLUMES      L**3       RATES FOR THIS TIME STEP      L**3/T
        ------------------                 ------------------------

              IN:                                      IN:
              ---                                      ---
             BOUNDARIES =           0.0000            BOUNDARIES =           0.0000
          CONSTANT HEAD =           0.0000         CONSTANT HEAD =           0.0000
            ZONE CHANGE =           2.5121           ZONE CHANGE =           2.5121
       ZONE CHG TIP/TOE =           0.0000      ZONE CHG TIP/TOE =           0.0000
            ZONE MIXING =           0.0000           ZONE MIXING =           0.0000

               TOTAL IN =           2.5121              TOTAL IN =           2.5121

             OUT:                                     OUT:
             ----                                     ----
             BOUNDARIES =           0.0000            BOUNDARIES =           0.0000
          CONSTANT HEAD =           0.0000         CONSTANT HEAD =           0.0000
            ZONE CHANGE =           2.5121           ZONE CHANGE =           2.5121
       ZONE CHG TIP/TOE =           0.0000      ZONE CHG TIP/TOE =           0.0000
            ZONE MIXING =           0.0000           ZONE MIXING =           0.0000

              TOTAL OUT =           2.5121             TOTAL OUT =           2.5121

               IN - OUT =       1.1921E-05              IN - OUT =       1.1921E-05

    PERCENT DISCREPANCY =           0.00     PERCENT DISCREPANCY =           0.00


 HEAD WILL BE SAVED ON UNIT   51 AT END OF TIME STEP    1, STRESS PERIOD    1
1
  VOLUMETRIC BUDGET FOR ENTIRE MODEL AT END OF TIME STEP    1, STRESS PERIOD   1
  ------------------------------------------------------------------------------

     CUMULATIVE VOLUMES      L**3       RATES FOR THIS TIME STEP      L**3/T
     ------------------                 ------------------------

           IN:                                      IN:
           ---                                      ---
             STORAGE =           0.0000               STORAGE =           0.0000
       CONSTANT HEAD =           0.3916         CONSTANT HEAD =           0.3916
          SWIADDTOCH =           0.0000            SWIADDTOCH =           0.0000
               WELLS =           0.0000                 WELLS =           0.0000
            RECHARGE =           2.4500              RECHARGE =           2.4500

            TOTAL IN =           2.8416              TOTAL IN =           2.8416

          OUT:                                     OUT:
          ----                                     ----
             STORAGE =           0.0000               STORAGE =           0.0000
       CONSTANT HEAD =           0.0000         CONSTANT HEAD =           0.0000
          SWIADDTOCH =           2.8416            SWIADDTOCH =           2.8416
               WELLS =           0.0000                 WELLS =           0.0000
            RECHARGE =           0.0000              RECHARGE =           0.0000

           TOTAL OUT =           2.8416             TOTAL OUT =           2.8416

            IN - OUT =       2.3842E-07              IN - OUT =       2.3842E-07

 PERCENT DISCREPANCY =           0.00     PERCENT DISCREPANCY =           0.00






         TIME SUMMARY AT END OF TIME STEP    1 IN STRESS PERIOD    1
                    SECONDS     MINUTES      HOURS       DAYS        YEARS
                    -----------------------------------------------------------
   TIME STEP LENGTH  86400.      1440.0      24.000      1.0000     2.73785E-03
 STRESS PERIOD TIME  86400.      1440.0      24.000      1.0000     2.73785E-03
         TOTAL TIME  86400.      1440.0      24.000      1.0000     2.73785E-03
1
1
                            STRESS PERIOD NO.    2, LENGTH =   3650.000    
                            -----------------------------------------------

                              NUMBER OF TIME STEPS =   100

                               MULTIPLIER FOR DELT =     1.000

                            INITIAL TIME STEP SIZE =   36.50000    

 WELL NO.  LAYER   ROW   COL   STRESS RATE         
 --------------------------------------------------
      1      1      1     41      -50.00    

      1 WELL 

 REUSING RECH FROM LAST STRESS PERIOD
 
 SOLVING FOR HEAD 

 NO OUTPUT CONTROL FOR STRESS PERIOD    2   TIME STEP    1
 SOLVING FOR ZETA FOR LAYER     1 ZONE     2

       3 UPPER PART EQS.         4 LOWER PART EQS.    BAND WIDTH + 1 =    2
 STRESS PERIOD=  2 TIMESTEP=  1 LAYER=  1 ZONE=  2 ACTIVE CELLS=    7 NUMBER OF EQUATIONS=       7
 
 SOLVING FOR HEAD 

 NO OUTPUT CONTROL FOR STRESS PERIOD    2   TIME STEP    2
 SOLVING FOR ZETA FOR LAYER     1 ZONE     2

       1 UPPER PART EQS.         1 LOWER PART EQS.    BAND WIDTH + 1 =    1
 STRESS PERIOD=  2 TIMESTEP=  2 LAYER=  1 ZONE=  2 ACTIVE CELLS=    2 NUMBER OF EQUATIONS=       2
 
 SOLVING FOR HEAD 

 NO OUTPUT CONTROL FOR STRESS PERIOD    2   TIME STEP    3
 SOLVING FOR ZETA FOR LAYER     1 ZONE     2

       0 UPPER PART EQS.         2 LOWER PART EQS.    BAND WIDTH + 1 =*****
 STRESS PERIOD=  2 TIMESTEP=  3 LAYER=  1 ZONE=  2 ACTIVE CELLS=    2 NUMBER OF EQUATIONS=       2
 
 SOLVING FOR HEAD 

 NO OUTPUT CONTROL FOR STRESS PERIOD    2   TIME STEP    4
 SOLVING FOR ZETA FOR LAYER     1 ZONE     2

       1 UPPER PART EQS.         1 LOWER PART EQS.    BAND WIDTH + 1 =*****
 STRESS PERIOD=  2 TIMESTEP=  4 LAYER=  1 ZONE=  2 ACTIVE CELLS=    1 NUMBER OF EQUATIONS=       1
 
 SOLVING FOR HEAD 

 NO OUTPUT CONTROL FOR STRESS PERIOD    2   TIME STEP    5
 SOLVING FOR ZETA FOR LAYER     1 ZONE     2

       0 UPPER PART EQS.         2 LOWER PART EQS.    BAND WIDTH + 1 =*****
 STRESS PERIOD=  2 TIMESTEP=  5 LAYER=  1 ZONE=  2 ACTIVE CELLS=    2 NUMBER OF EQUATIONS=       2
 
 SOLVING FOR HEAD 

 NO OUTPUT CONTROL FOR STRESS PERIOD    2   TIME STEP    6
 SOLVING FOR ZETA FOR LAYER     1 ZONE     2

       1 UPPER PART EQS.         1 LOWER PART EQS.    BAND WIDTH + 1 =*****
 STRESS PERIOD=  2 TIMESTEP=  6 LAYER=  1 ZONE=  2 ACTIVE CELLS=    1 NUMBER OF EQUATIONS=       1
 
 SOLVING FOR HEAD 

 NO OUTPUT CONTROL FOR STRESS PERIOD    2   TIME STEP    7
 SOLVING FOR ZETA FOR LAYER     1 ZONE     2

       0 UPPER PART EQS.         2 LOWER PART EQS.    BAND WIDTH + 1 =*****
 STRESS PERIOD=  2 TIMESTEP=  7 LAYER=  1 ZONE=  2 ACTIVE CELLS=    2 NUMBER OF EQUATIONS=       2
 
 SOLVING FOR HEAD 

 NO OUTPUT CONTROL FOR STRESS PERIOD    2   TIME STEP    8
 SOLVING FOR ZETA FOR LAYER     1 ZONE     2

       1 UPPER PART EQS.         1 LOWER PART EQS.    BAND WIDTH + 1 =*****
 STRESS PERIOD=  2 TIMESTEP=  8 LAYER=  1 ZONE=  2 ACTIVE CELLS=    1 NUMBER OF EQUATIONS=       1
 
 SOLVING FOR HEAD 

 NO OUTPUT CONTROL FOR STRESS PERIOD    2   TIME STEP    9
 SOLVING FOR ZETA FOR LAYER     1 ZONE     2

       0 UPPER PART EQS.         2 LOWER PART EQS.    BAND WIDTH + 1 =*****
 STRESS PERIOD=  2 TIMESTEP=  9 LAYER=  1 ZONE=  2 ACTIVE CELLS=    2 NUMBER OF EQUATIONS=       2
 
 SOLVING FOR HEAD 

 NO OUTPUT CONTROL FOR STRESS PERIOD    2   TIME STEP   10
 SOLVING FOR ZETA FOR LAYER     1 ZONE     2

       1 UPPER PART EQS.         1 LOWER PART EQS.    BAND WIDTH + 1 =*****
 STRESS PERIOD=  2 TIMESTEP= 10 LAYER=  1 ZONE=  2 ACTIVE CELLS=    1 NUMBER OF EQUATIONS=       1
 
 SOLVING FOR HEAD 

 NO OUTPUT CONTROL FOR STRESS PERIOD    2   TIME STEP   11
 SOLVING FOR ZETA FOR LAYER     1 ZONE     2

       0 UPPER PART EQS.         2 LOWER PART EQS.    BAND WIDTH + 1 =*****
 STRESS PERIOD=  2 TIMESTEP= 11 LAYER=  1 ZONE=  2 ACTIVE CELLS=    2 NUMBER OF EQUATIONS=       2
 
 SOLVING FOR HEAD 

 NO OUTPUT CONTROL FOR STRESS PERIOD    2   TIME STEP   12
 SOLVING FOR ZETA FOR LAYER     1 ZONE     2

       1 UPPER PART EQS.         1 LOWER PART EQS.    BAND WIDTH + 1 =*****
 STRESS PERIOD=  2 TIMESTEP= 12 LAYER=  1 ZONE=  2 ACTIVE CELLS=    1 NUMBER OF EQUATIONS=       1
 
 SOLVING FOR HEAD 

 NO OUTPUT CONTROL FOR STRESS PERIOD    2   TIME STEP   13
 SOLVING FOR ZETA FOR LAYER     1 ZONE     2

       0 UPPER PART EQS.         2 LOWER PART EQS.    BAND WIDTH + 1 =*****
 STRESS PERIOD=  2 TIMESTEP= 13 LAYER=  1 ZONE=  2 ACTIVE CELLS=    2 NUMBER OF EQUATIONS=       2
 
 SOLVING FOR HEAD 

 NO OUTPUT CONTROL FOR STRESS PERIOD    2   TIME STEP   14
 SOLVING FOR ZETA FOR LAYER     1 ZONE     2

       1 UPPER PART EQS.         1 LOWER PART EQS.    BAND WIDTH + 1 =*****
 STRESS PERIOD=  2 TIMESTEP= 14 LAYER=  1 ZONE=  2 ACTIVE CELLS=    1 NUMBER OF EQUATIONS=       1
 
 SOLVING FOR HEAD 

 NO OUTPUT CONTROL FOR STRESS PERIOD    2   TIME STEP   15
 SOLVING FOR ZETA FOR LAYER     1 ZONE     2

       0 UPPER PART EQS.         2 LOWER PART EQS.    BAND WIDTH + 1 =*****
 STRESS PERIOD=  2 TIMESTEP= 15 LAYER=  1 ZONE=  2 ACTIVE CELLS=    2 NUMBER OF EQUATIONS=       2
 
 SOLVING FOR HEAD 

 NO OUTPUT CONTROL FOR STRESS PERIOD    2   TIME STEP   16
 SOLVING FOR ZETA FOR LAYER     1 ZONE     2

       1 UPPER PART EQS.         1 LOWER PART EQS.    BAND WIDTH + 1 =*****
 STRESS PERIOD=  2 TIMESTEP= 16 LAYER=  1 ZONE=  2 ACTIVE CELLS=    1 NUMBER OF EQUATIONS=       1
 
 SOLVING FOR HEAD 

 NO OUTPUT CONTROL FOR STRESS PERIOD    2   TIME STEP   17
 SOLVING FOR ZETA FOR LAYER     1 ZONE     2

       0 UPPER PART EQS.         2 LOWER PART EQS.    BAND WIDTH + 1 =*****
 STRESS PERIOD=  2 TIMESTEP= 17 LAYER=  1 ZONE=  2 ACTIVE CELLS=    2 NUMBER OF EQUATIONS=       2
 
 SOLVING FOR HEAD 

 NO OUTPUT CONTROL FOR STRESS PERIOD    2   TIME STEP   18
 SOLVING FOR ZETA FOR LAYER     1 ZONE     2

       1 UPPER PART EQS.         1 LOWER PART EQS.    BAND WIDTH + 1 =*****
 STRESS PERIOD=  2 TIMESTEP= 18 LAYER=  1 ZONE=  2 ACTIVE CELLS=    1 NUMBER OF EQUATIONS=       1
 
 SOLVING FOR HEAD 

 NO OUTPUT CONTROL FOR STRESS PERIOD    2   TIME STEP   19
 SOLVING FOR ZETA FOR LAYER     1 ZONE     2

       0 UPPER PART EQS.         2 LOWER PART EQS.    BAND WIDTH + 1 =*****
 STRESS PERIOD=  2 TIMESTEP= 19 LAYER=  1 ZONE=  2 ACTIVE CELLS=    2 NUMBER OF EQUATIONS=       2
 
 SOLVING FOR HEAD 

 NO OUTPUT CONTROL FOR STRESS PERIOD    2   TIME STEP   20
 SOLVING FOR ZETA FOR LAYER     1 ZONE     2

       1 UPPER PART EQS.         1 LOWER PART EQS.    BAND WIDTH + 1 =*****
 STRESS PERIOD=  2 TIMESTEP= 20 LAYER=  1 ZONE=  2 ACTIVE CELLS=    1 NUMBER OF EQUATIONS=       1
 
 SOLVING FOR HEAD 

 NO OUTPUT CONTROL FOR STRESS PERIOD    2   TIME STEP   21
 SOLVING FOR ZETA FOR LAYER     1 ZONE     2

       0 UPPER PART EQS.         2 LOWER PART EQS.    BAND WIDTH + 1 =*****
 STRESS PERIOD=  2 TIMESTEP= 21 LAYER=  1 ZONE=  2 ACTIVE CELLS=    2 NUMBER OF EQUATIONS=       2
 
 SOLVING FOR HEAD 

 NO OUTPUT CONTROL FOR STRESS PERIOD    2   TIME STEP   22
 SOLVING FOR ZETA FOR LAYER     1 ZONE     2

       1 UPPER PART EQS.         1 LOWER PART EQS.    BAND WIDTH + 1 =*****
 STRESS PERIOD=  2 TIMESTEP= 22 LAYER=  1 ZONE=  2 ACTIVE CELLS=    1 NUMBER OF EQUATIONS=       1
 
 SOLVING FOR HEAD 

 NO OUTPUT CONTROL FOR STRESS PERIOD    2   TIME STEP   23
 SOLVING FOR ZETA FOR LAYER     1 ZONE     2

       0 UPPER PART EQS.         2 LOWER PART EQS.    BAND WIDTH + 1 =*****
 STRESS PERIOD=  2 TIMESTEP= 23 LAYER=  1 ZONE=  2 ACTIVE CELLS=    2 NUMBER OF EQUATIONS=       2
 
 SOLVING FOR HEAD 

 NO OUTPUT CONTROL FOR STRESS PERIOD    2   TIME STEP   24
 SOLVING FOR ZETA FOR LAYER     1 ZONE     2

       1 UPPER PART EQS.         1 LOWER PART EQS.    BAND WIDTH + 1 =*****
 STRESS PERIOD=  2 TIMESTEP= 24 LAYER=  1 ZONE=  2 ACTIVE CELLS=    1 NUMBER OF EQUATIONS=       1
 
 SOLVING FOR HEAD 

 NO OUTPUT CONTROL FOR STRESS PERIOD    2   TIME STEP   25
 SOLVING FOR ZETA FOR LAYER     1 ZONE     2

       0 UPPER PART EQS.         2 LOWER PART EQS.    BAND WIDTH + 1 =*****
 STRESS PERIOD=  2 TIMESTEP= 25 LAYER=  1 ZONE=  2 ACTIVE CELLS=    2 NUMBER OF EQUATIONS=       2
 
 SOLVING FOR HEAD 

 NO OUTPUT CONTROL FOR STRESS PERIOD    2   TIME STEP   26
 SOLVING FOR ZETA FOR LAYER     1 ZONE     2

       1 UPPER PART EQS.         1 LOWER PART EQS.    BAND WIDTH + 1 =*****
 STRESS PERIOD=  2 TIMESTEP= 26 LAYER=  1 ZONE=  2 ACTIVE CELLS=    1 NUMBER OF EQUATIONS=       1
 
 SOLVING FOR HEAD 

 NO OUTPUT CONTROL FOR STRESS PERIOD    2   TIME STEP   27
 SOLVING FOR ZETA FOR LAYER     1 ZONE     2

       0 UPPER PART EQS.         2 LOWER PART EQS.    BAND WIDTH + 1 =*****
 STRESS PERIOD=  2 TIMESTEP= 27 LAYER=  1 ZONE=  2 ACTIVE CELLS=    2 NUMBER OF EQUATIONS=       2
 
 SOLVING FOR HEAD 

 NO OUTPUT CONTROL FOR STRESS PERIOD    2   TIME STEP   28
 SOLVING FOR ZETA FOR LAYER     1 ZONE     2

       1 UPPER PART EQS.         1 LOWER PART EQS.    BAND WIDTH + 1 =*****
 STRESS PERIOD=  2 TIMESTEP= 28 LAYER=  1 ZONE=  2 ACTIVE CELLS=    1 NUMBER OF EQUATIONS=       1
 
 SOLVING FOR HEAD 

 NO OUTPUT CONTROL FOR STRESS PERIOD    2   TIME STEP   29
 SOLVING FOR ZETA FOR LAYER     1 ZONE     2

       0 UPPER PART EQS.         2 LOWER PART EQS.    BAND WIDTH + 1 =*****
 STRESS PERIOD=  2 TIMESTEP= 29 LAYER=  1 ZONE=  2 ACTIVE CELLS=    2 NUMBER OF EQUATIONS=       2
 
 SOLVING FOR HEAD 

 NO OUTPUT CONTROL FOR STRESS PERIOD    2   TIME STEP   30
 SOLVING FOR ZETA FOR LAYER     1 ZONE     2

       1 UPPER PART EQS.         1 LOWER PART EQS.    BAND WIDTH + 1 =*****
 STRESS PERIOD=  2 TIMESTEP= 30 LAYER=  1 ZONE=  2 ACTIVE CELLS=    1 NUMBER OF EQUATIONS=       1
 
 SOLVING FOR HEAD 

 NO OUTPUT CONTROL FOR STRESS PERIOD    2   TIME STEP   31
 SOLVING FOR ZETA FOR LAYER     1 ZONE     2

       0 UPPER PART EQS.         2 LOWER PART EQS.    BAND WIDTH + 1 =*****
 STRESS PERIOD=  2 TIMESTEP= 31 LAYER=  1 ZONE=  2 ACTIVE CELLS=    2 NUMBER OF EQUATIONS=       2
 
 SOLVING FOR HEAD 

 NO OUTPUT CONTROL FOR STRESS PERIOD    2   TIME STEP   32
 SOLVING FOR ZETA FOR LAYER     1 ZONE     2

       1 UPPER PART EQS.         1 LOWER PART EQS.    BAND WIDTH + 1 =*****
 STRESS PERIOD=  2 TIMESTEP= 32 LAYER=  1 ZONE=  2 ACTIVE CELLS=    1 NUMBER OF EQUATIONS=       1
 
 SOLVING FOR HEAD 

 NO OUTPUT CONTROL FOR STRESS PERIOD    2   TIME STEP   33
 SOLVING FOR ZETA FOR LAYER     1 ZONE     2

       0 UPPER PART EQS.         2 LOWER PART EQS.    BAND WIDTH + 1 =*****
 STRESS PERIOD=  2 TIMESTEP= 33 LAYER=  1 ZONE=  2 ACTIVE CELLS=    2 NUMBER OF EQUATIONS=       2
 
 SOLVING FOR HEAD 

 NO OUTPUT CONTROL FOR STRESS PERIOD    2   TIME STEP   34
 SOLVING FOR ZETA FOR LAYER     1 ZONE     2

       1 UPPER PART EQS.         1 LOWER PART EQS.    BAND WIDTH + 1 =*****
 STRESS PERIOD=  2 TIMESTEP= 34 LAYER=  1 ZONE=  2 ACTIVE CELLS=    1 NUMBER OF EQUATIONS=       1
 
 SOLVING FOR HEAD 

 NO OUTPUT CONTROL FOR STRESS PERIOD    2   TIME STEP   35
 SOLVING FOR ZETA FOR LAYER     1 ZONE     2

       0 UPPER PART EQS.         2 LOWER PART EQS.    BAND WIDTH + 1 =*****
 STRESS PERIOD=  2 TIMESTEP= 35 LAYER=  1 ZONE=  2 ACTIVE CELLS=    2 NUMBER OF EQUATIONS=       2
 
 SOLVING FOR HEAD 

 NO OUTPUT CONTROL FOR STRESS PERIOD    2   TIME STEP   36
 SOLVING FOR ZETA FOR LAYER     1 ZONE     2

       1 UPPER PART EQS.         1 LOWER PART EQS.    BAND WIDTH + 1 =*****
 STRESS PERIOD=  2 TIMESTEP= 36 LAYER=  1 ZONE=  2 ACTIVE CELLS=    1 NUMBER OF EQUATIONS=       1
 
 SOLVING FOR HEAD 

 NO OUTPUT CONTROL FOR STRESS PERIOD    2   TIME STEP   37
 SOLVING FOR ZETA FOR LAYER     1 ZONE     2

       0 UPPER PART EQS.         2 LOWER PART EQS.    BAND WIDTH + 1 =*****
 STRESS PERIOD=  2 TIMESTEP= 37 LAYER=  1 ZONE=  2 ACTIVE CELLS=    2 NUMBER OF EQUATIONS=       2
 
 SOLVING FOR HEAD 

 NO OUTPUT CONTROL FOR STRESS PERIOD    2   TIME STEP   38
 SOLVING FOR ZETA FOR LAYER     1 ZONE     2

       1 UPPER PART EQS.         1 LOWER PART EQS.    BAND WIDTH + 1 =*****
 STRESS PERIOD=  2 TIMESTEP= 38 LAYER=  1 ZONE=  2 ACTIVE CELLS=    1 NUMBER OF EQUATIONS=       1
 
 SOLVING FOR HEAD 

 NO OUTPUT CONTROL FOR STRESS PERIOD    2   TIME STEP   39
 SOLVING FOR ZETA FOR LAYER     1 ZONE     2

       0 UPPER PART EQS.         2 LOWER PART EQS.    BAND WIDTH + 1 =*****
 STRESS PERIOD=  2 TIMESTEP= 39 LAYER=  1 ZONE=  2 ACTIVE CELLS=    2 NUMBER OF EQUATIONS=       2
 
 SOLVING FOR HEAD 

 NO OUTPUT CONTROL FOR STRESS PERIOD    2   TIME STEP   40
 SOLVING FOR ZETA FOR LAYER     1 ZONE     2

       1 UPPER PART EQS.         1 LOWER PART EQS.    BAND WIDTH + 1 =*****
 STRESS PERIOD=  2 TIMESTEP= 40 LAYER=  1 ZONE=  2 ACTIVE CELLS=    1 NUMBER OF EQUATIONS=       1
 
 SOLVING FOR HEAD 

 NO OUTPUT CONTROL FOR STRESS PERIOD    2   TIME STEP   41
 SOLVING FOR ZETA FOR LAYER     1 ZONE     2

       0 UPPER PART EQS.         2 LOWER PART EQS.    BAND WIDTH + 1 =*****
 STRESS PERIOD=  2 TIMESTEP= 41 LAYER=  1 ZONE=  2 ACTIVE CELLS=    2 NUMBER OF EQUATIONS=       2
 
 SOLVING FOR HEAD 

 NO OUTPUT CONTROL FOR STRESS PERIOD    2   TIME STEP   42
 SOLVING FOR ZETA FOR LAYER     1 ZONE     2

       1 UPPER PART EQS.         1 LOWER PART EQS.    BAND WIDTH + 1 =*****
 STRESS PERIOD=  2 TIMESTEP= 42 LAYER=  1 ZONE=  2 ACTIVE CELLS=    1 NUMBER OF EQUATIONS=       1
 
 SOLVING FOR HEAD 

 NO OUTPUT CONTROL FOR STRESS PERIOD    2   TIME STEP   43
 SOLVING FOR ZETA FOR LAYER     1 ZONE     2

       0 UPPER PART EQS.         2 LOWER PART EQS.    BAND WIDTH + 1 =*****
 STRESS PERIOD=  2 TIMESTEP= 43 LAYER=  1 ZONE=  2 ACTIVE CELLS=    2 NUMBER OF EQUATIONS=       2
 
 SOLVING FOR HEAD 

 NO OUTPUT CONTROL FOR STRESS PERIOD    2   TIME STEP   44
 SOLVING FOR ZETA FOR LAYER     1 ZONE     2

       1 UPPER PART EQS.         1 LOWER PART EQS.    BAND WIDTH + 1 =*****
 STRESS PERIOD=  2 TIMESTEP= 44 LAYER=  1 ZONE=  2 ACTIVE CELLS=    1 NUMBER OF EQUATIONS=       1
 
 SOLVING FOR HEAD 

 NO OUTPUT CONTROL FOR STRESS PERIOD    2   TIME STEP   45
 SOLVING FOR ZETA FOR LAYER     1 ZONE     2

       0 UPPER PART EQS.         2 LOWER PART EQS.    BAND WIDTH + 1 =*****
 STRESS PERIOD=  2 TIMESTEP= 45 LAYER=  1 ZONE=  2 ACTIVE CELLS=    2 NUMBER OF EQUATIONS=       2
 
 SOLVING FOR HEAD 

 NO OUTPUT CONTROL FOR STRESS PERIOD    2   TIME STEP   46
 SOLVING FOR ZETA FOR LAYER     1 ZONE     2

       1 UPPER PART EQS.         1 LOWER PART EQS.    BAND WIDTH + 1 =*****
 STRESS PERIOD=  2 TIMESTEP= 46 LAYER=  1 ZONE=  2 ACTIVE CELLS=    1 NUMBER OF EQUATIONS=       1
 
 SOLVING FOR HEAD 

 NO OUTPUT CONTROL FOR STRESS PERIOD    2   TIME STEP   47
 SOLVING FOR ZETA FOR LAYER     1 ZONE     2

       0 UPPER PART EQS.         2 LOWER PART EQS.    BAND WIDTH + 1 =*****
 STRESS PERIOD=  2 TIMESTEP= 47 LAYER=  1 ZONE=  2 ACTIVE CELLS=    2 NUMBER OF EQUATIONS=       2
 
 SOLVING FOR HEAD 

 NO OUTPUT CONTROL FOR STRESS PERIOD    2   TIME STEP   48
 SOLVING FOR ZETA FOR LAYER     1 ZONE     2

       1 UPPER PART EQS.         1 LOWER PART EQS.    BAND WIDTH + 1 =*****
 STRESS PERIOD=  2 TIMESTEP= 48 LAYER=  1 ZONE=  2 ACTIVE CELLS=    1 NUMBER OF EQUATIONS=       1
 
 SOLVING FOR HEAD 

 NO OUTPUT CONTROL FOR STRESS PERIOD    2   TIME STEP   49
 SOLVING FOR ZETA FOR LAYER     1 ZONE     2

       0 UPPER PART EQS.         2 LOWER PART EQS.    BAND WIDTH + 1 =*****
 STRESS PERIOD=  2 TIMESTEP= 49 LAYER=  1 ZONE=  2 ACTIVE CELLS=    2 NUMBER OF EQUATIONS=       2
 
 SOLVING FOR HEAD 

 NO OUTPUT CONTROL FOR STRESS PERIOD    2   TIME STEP   50
 SOLVING FOR ZETA FOR LAYER     1 ZONE     2

       1 UPPER PART EQS.         1 LOWER PART EQS.    BAND WIDTH + 1 =*****
 STRESS PERIOD=  2 TIMESTEP= 50 LAYER=  1 ZONE=  2 ACTIVE CELLS=    1 NUMBER OF EQUATIONS=       1
 
 SOLVING FOR HEAD 

 NO OUTPUT CONTROL FOR STRESS PERIOD    2   TIME STEP   51
 SOLVING FOR ZETA FOR LAYER     1 ZONE     2

       0 UPPER PART EQS.         2 LOWER PART EQS.    BAND WIDTH + 1 =*****
 STRESS PERIOD=  2 TIMESTEP= 51 LAYER=  1 ZONE=  2 ACTIVE CELLS=    2 NUMBER OF EQUATIONS=       2
 
 SOLVING FOR HEAD 

 NO OUTPUT CONTROL FOR STRESS PERIOD    2   TIME STEP   52
 SOLVING FOR ZETA FOR LAYER     1 ZONE     2

       1 UPPER PART EQS.         1 LOWER PART EQS.    BAND WIDTH + 1 =*****
 STRESS PERIOD=  2 TIMESTEP= 52 LAYER=  1 ZONE=  2 ACTIVE CELLS=    1 NUMBER OF EQUATIONS=       1
 
 SOLVING FOR HEAD 

 NO OUTPUT CONTROL FOR STRESS PERIOD    2   TIME STEP   53
 SOLVING FOR ZETA FOR LAYER     1 ZONE     2

       0 UPPER PART EQS.         2 LOWER PART EQS.    BAND WIDTH + 1 =*****
 STRESS PERIOD=  2 TIMESTEP= 53 LAYER=  1 ZONE=  2 ACTIVE CELLS=    2 NUMBER OF EQUATIONS=       2
 
 SOLVING FOR HEAD 

 NO OUTPUT CONTROL FOR STRESS PERIOD    2   TIME STEP   54
 SOLVING FOR ZETA FOR LAYER     1 ZONE     2

       1 UPPER PART EQS.         1 LOWER PART EQS.    BAND WIDTH + 1 =*****
 STRESS PERIOD=  2 TIMESTEP= 54 LAYER=  1 ZONE=  2 ACTIVE CELLS=    1 NUMBER OF EQUATIONS=       1
 
 SOLVING FOR HEAD 

 NO OUTPUT CONTROL FOR STRESS PERIOD    2   TIME STEP   55
 SOLVING FOR ZETA FOR LAYER     1 ZONE     2

       0 UPPER PART EQS.         2 LOWER PART EQS.    BAND WIDTH + 1 =*****
 STRESS PERIOD=  2 TIMESTEP= 55 LAYER=  1 ZONE=  2 ACTIVE CELLS=    2 NUMBER OF EQUATIONS=       2
 
 SOLVING FOR HEAD 

 NO OUTPUT CONTROL FOR STRESS PERIOD    2   TIME STEP   56
 SOLVING FOR ZETA FOR LAYER     1 ZONE     2

       1 UPPER PART EQS.         1 LOWER PART EQS.    BAND WIDTH + 1 =*****
 STRESS PERIOD=  2 TIMESTEP= 56 LAYER=  1 ZONE=  2 ACTIVE CELLS=    1 NUMBER OF EQUATIONS=       1
 
 SOLVING FOR HEAD 

 NO OUTPUT CONTROL FOR STRESS PERIOD    2   TIME STEP   57
 SOLVING FOR ZETA FOR LAYER     1 ZONE     2

       0 UPPER PART EQS.         2 LOWER PART EQS.    BAND WIDTH + 1 =*****
 STRESS PERIOD=  2 TIMESTEP= 57 LAYER=  1 ZONE=  2 ACTIVE CELLS=    2 NUMBER OF EQUATIONS=       2
 
 SOLVING FOR HEAD 

 NO OUTPUT CONTROL FOR STRESS PERIOD    2   TIME STEP   58
 SOLVING FOR ZETA FOR LAYER     1 ZONE     2

       1 UPPER PART EQS.         1 LOWER PART EQS.    BAND WIDTH + 1 =*****
 STRESS PERIOD=  2 TIMESTEP= 58 LAYER=  1 ZONE=  2 ACTIVE CELLS=    1 NUMBER OF EQUATIONS=       1
 
 SOLVING FOR HEAD 

 NO OUTPUT CONTROL FOR STRESS PERIOD    2   TIME STEP   59
 SOLVING FOR ZETA FOR LAYER     1 ZONE     2

       0 UPPER PART EQS.         2 LOWER PART EQS.    BAND WIDTH + 1 =*****
 STRESS PERIOD=  2 TIMESTEP= 59 LAYER=  1 ZONE=  2 ACTIVE CELLS=    2 NUMBER OF EQUATIONS=       2
 
 SOLVING FOR HEAD 

 NO OUTPUT CONTROL FOR STRESS PERIOD    2   TIME STEP   60
 SOLVING FOR ZETA FOR LAYER     1 ZONE     2

       1 UPPER PART EQS.         1 LOWER PART EQS.    BAND WIDTH + 1 =*****
 STRESS PERIOD=  2 TIMESTEP= 60 LAYER=  1 ZONE=  2 ACTIVE CELLS=    1 NUMBER OF EQUATIONS=       1
 
 SOLVING FOR HEAD 

 NO OUTPUT CONTROL FOR STRESS PERIOD    2   TIME STEP   61
 SOLVING FOR ZETA FOR LAYER     1 ZONE     2

       0 UPPER PART EQS.         2 LOWER PART EQS.    BAND WIDTH + 1 =*****
 STRESS PERIOD=  2 TIMESTEP= 61 LAYER=  1 ZONE=  2 ACTIVE CELLS=    2 NUMBER OF EQUATIONS=       2
 
 SOLVING FOR HEAD 

 NO OUTPUT CONTROL FOR STRESS PERIOD    2   TIME STEP   62
 SOLVING FOR ZETA FOR LAYER     1 ZONE     2

       1 UPPER PART EQS.         1 LOWER PART EQS.    BAND WIDTH + 1 =*****
 STRESS PERIOD=  2 TIMESTEP= 62 LAYER=  1 ZONE=  2 ACTIVE CELLS=    1 NUMBER OF EQUATIONS=       1
 
 SOLVING FOR HEAD 

 NO OUTPUT CONTROL FOR STRESS PERIOD    2   TIME STEP   63
 SOLVING FOR ZETA FOR LAYER     1 ZONE     2

       0 UPPER PART EQS.         2 LOWER PART EQS.    BAND WIDTH + 1 =*****
 STRESS PERIOD=  2 TIMESTEP= 63 LAYER=  1 ZONE=  2 ACTIVE CELLS=    2 NUMBER OF EQUATIONS=       2
 
 SOLVING FOR HEAD 

 NO OUTPUT CONTROL FOR STRESS PERIOD    2   TIME STEP   64
 SOLVING FOR ZETA FOR LAYER     1 ZONE     2

       1 UPPER PART EQS.         1 LOWER PART EQS.    BAND WIDTH + 1 =*****
 STRESS PERIOD=  2 TIMESTEP= 64 LAYER=  1 ZONE=  2 ACTIVE CELLS=    1 NUMBER OF EQUATIONS=       1
 
 SOLVING FOR HEAD 

 NO OUTPUT CONTROL FOR STRESS PERIOD    2   TIME STEP   65
 SOLVING FOR ZETA FOR LAYER     1 ZONE     2

       0 UPPER PART EQS.         2 LOWER PART EQS.    BAND WIDTH + 1 =*****
 STRESS PERIOD=  2 TIMESTEP= 65 LAYER=  1 ZONE=  2 ACTIVE CELLS=    2 NUMBER OF EQUATIONS=       2
 
 SOLVING FOR HEAD 

 NO OUTPUT CONTROL FOR STRESS PERIOD    2   TIME STEP   66
 SOLVING FOR ZETA FOR LAYER     1 ZONE     2

       1 UPPER PART EQS.         1 LOWER PART EQS.    BAND WIDTH + 1 =*****
 STRESS PERIOD=  2 TIMESTEP= 66 LAYER=  1 ZONE=  2 ACTIVE CELLS=    1 NUMBER OF EQUATIONS=       1
 
 SOLVING FOR HEAD 

 NO OUTPUT CONTROL FOR STRESS PERIOD    2   TIME STEP   67
 SOLVING FOR ZETA FOR LAYER     1 ZONE     2

       0 UPPER PART EQS.         2 LOWER PART EQS.    BAND WIDTH + 1 =*****
 STRESS PERIOD=  2 TIMESTEP= 67 LAYER=  1 ZONE=  2 ACTIVE CELLS=    2 NUMBER OF EQUATIONS=       2
 
 SOLVING FOR HEAD 

 NO OUTPUT CONTROL FOR STRESS PERIOD    2   TIME STEP   68
 SOLVING FOR ZETA FOR LAYER     1 ZONE     2

       1 UPPER PART EQS.         1 LOWER PART EQS.    BAND WIDTH + 1 =*****
 STRESS PERIOD=  2 TIMESTEP= 68 LAYER=  1 ZONE=  2 ACTIVE CELLS=    1 NUMBER OF EQUATIONS=       1
 
 SOLVING FOR HEAD 

 NO OUTPUT CONTROL FOR STRESS PERIOD    2   TIME STEP   69
 SOLVING FOR ZETA FOR LAYER     1 ZONE     2

       0 UPPER PART EQS.         2 LOWER PART EQS.    BAND WIDTH + 1 =*****
 STRESS PERIOD=  2 TIMESTEP= 69 LAYER=  1 ZONE=  2 ACTIVE CELLS=    2 NUMBER OF EQUATIONS=       2
 
 SOLVING FOR HEAD 

 NO OUTPUT CONTROL FOR STRESS PERIOD    2   TIME STEP   70
 SOLVING FOR ZETA FOR LAYER     1 ZONE     2

       1 UPPER PART EQS.         1 LOWER PART EQS.    BAND WIDTH + 1 =*****
 STRESS PERIOD=  2 TIMESTEP= 70 LAYER=  1 ZONE=  2 ACTIVE CELLS=    1 NUMBER OF EQUATIONS=       1
 
 SOLVING FOR HEAD 

 NO OUTPUT CONTROL FOR STRESS PERIOD    2   TIME STEP   71
 SOLVING FOR ZETA FOR LAYER     1 ZONE     2

       0 UPPER PART EQS.         2 LOWER PART EQS.    BAND WIDTH + 1 =*****
 STRESS PERIOD=  2 TIMESTEP= 71 LAYER=  1 ZONE=  2 ACTIVE CELLS=    2 NUMBER OF EQUATIONS=       2
 
 SOLVING FOR HEAD 

 NO OUTPUT CONTROL FOR STRESS PERIOD    2   TIME STEP   72
 SOLVING FOR ZETA FOR LAYER     1 ZONE     2

       1 UPPER PART EQS.         1 LOWER PART EQS.    BAND WIDTH + 1 =*****
 STRESS PERIOD=  2 TIMESTEP= 72 LAYER=  1 ZONE=  2 ACTIVE CELLS=    1 NUMBER OF EQUATIONS=       1
 
 SOLVING FOR HEAD 

 NO OUTPUT CONTROL FOR STRESS PERIOD    2   TIME STEP   73
 SOLVING FOR ZETA FOR LAYER     1 ZONE     2

       0 UPPER PART EQS.         2 LOWER PART EQS.    BAND WIDTH + 1 =*****
 STRESS PERIOD=  2 TIMESTEP= 73 LAYER=  1 ZONE=  2 ACTIVE CELLS=    2 NUMBER OF EQUATIONS=       2
 
 SOLVING FOR HEAD 

 NO OUTPUT CONTROL FOR STRESS PERIOD    2   TIME STEP   74
 SOLVING FOR ZETA FOR LAYER     1 ZONE     2

       1 UPPER PART EQS.         1 LOWER PART EQS.    BAND WIDTH + 1 =*****
 STRESS PERIOD=  2 TIMESTEP= 74 LAYER=  1 ZONE=  2 ACTIVE CELLS=    1 NUMBER OF EQUATIONS=       1
 
 SOLVING FOR HEAD 

 NO OUTPUT CONTROL FOR STRESS PERIOD    2   TIME STEP   75
 SOLVING FOR ZETA FOR LAYER     1 ZONE     2

       0 UPPER PART EQS.         2 LOWER PART EQS.    BAND WIDTH + 1 =*****
 STRESS PERIOD=  2 TIMESTEP= 75 LAYER=  1 ZONE=  2 ACTIVE CELLS=    2 NUMBER OF EQUATIONS=       2
 
 SOLVING FOR HEAD 

 NO OUTPUT CONTROL FOR STRESS PERIOD    2   TIME STEP   76
 SOLVING FOR ZETA FOR LAYER     1 ZONE     2

       1 UPPER PART EQS.         1 LOWER PART EQS.    BAND WIDTH + 1 =*****
 STRESS PERIOD=  2 TIMESTEP= 76 LAYER=  1 ZONE=  2 ACTIVE CELLS=    1 NUMBER OF EQUATIONS=       1
 
 SOLVING FOR HEAD 

 NO OUTPUT CONTROL FOR STRESS PERIOD    2   TIME STEP   77
 SOLVING FOR ZETA FOR LAYER     1 ZONE     2

       0 UPPER PART EQS.         2 LOWER PART EQS.    BAND WIDTH + 1 =*****
 STRESS PERIOD=  2 TIMESTEP= 77 LAYER=  1 ZONE=  2 ACTIVE CELLS=    2 NUMBER OF EQUATIONS=       2
 
 SOLVING FOR HEAD 

 NO OUTPUT CONTROL FOR STRESS PERIOD    2   TIME STEP   78
 SOLVING FOR ZETA FOR LAYER     1 ZONE     2

       1 UPPER PART EQS.         1 LOWER PART EQS.    BAND WIDTH + 1 =*****
 STRESS PERIOD=  2 TIMESTEP= 78 LAYER=  1 ZONE=  2 ACTIVE CELLS=    1 NUMBER OF EQUATIONS=       1
 
 SOLVING FOR HEAD 

 NO OUTPUT CONTROL FOR STRESS PERIOD    2   TIME STEP   79
 SOLVING FOR ZETA FOR LAYER     1 ZONE     2

       0 UPPER PART EQS.         2 LOWER PART EQS.    BAND WIDTH + 1 =*****
 STRESS PERIOD=  2 TIMESTEP= 79 LAYER=  1 ZONE=  2 ACTIVE CELLS=    2 NUMBER OF EQUATIONS=       2
 
 SOLVING FOR HEAD 

 NO OUTPUT CONTROL FOR STRESS PERIOD    2   TIME STEP   80
 SOLVING FOR ZETA FOR LAYER     1 ZONE     2

       1 UPPER PART EQS.         1 LOWER PART EQS.    BAND WIDTH + 1 =*****
 STRESS PERIOD=  2 TIMESTEP= 80 LAYER=  1 ZONE=  2 ACTIVE CELLS=    1 NUMBER OF EQUATIONS=       1
 
 SOLVING FOR HEAD 

 NO OUTPUT CONTROL FOR STRESS PERIOD    2   TIME STEP   81
 SOLVING FOR ZETA FOR LAYER     1 ZONE     2

       0 UPPER PART EQS.         2 LOWER PART EQS.    BAND WIDTH + 1 =*****
 STRESS PERIOD=  2 TIMESTEP= 81 LAYER=  1 ZONE=  2 ACTIVE CELLS=    2 NUMBER OF EQUATIONS=       2
 
 SOLVING FOR HEAD 

 NO OUTPUT CONTROL FOR STRESS PERIOD    2   TIME STEP   82
 SOLVING FOR ZETA FOR LAYER     1 ZONE     2

       1 UPPER PART EQS.         1 LOWER PART EQS.    BAND WIDTH + 1 =*****
 STRESS PERIOD=  2 TIMESTEP= 82 LAYER=  1 ZONE=  2 ACTIVE CELLS=    1 NUMBER OF EQUATIONS=       1
 
 SOLVING FOR HEAD 

 NO OUTPUT CONTROL FOR STRESS PERIOD    2   TIME STEP   83
 SOLVING FOR ZETA FOR LAYER     1 ZONE     2

       0 UPPER PART EQS.         2 LOWER PART EQS.    BAND WIDTH + 1 =*****
 STRESS PERIOD=  2 TIMESTEP= 83 LAYER=  1 ZONE=  2 ACTIVE CELLS=    2 NUMBER OF EQUATIONS=       2
 
 SOLVING FOR HEAD 

 NO OUTPUT CONTROL FOR STRESS PERIOD    2   TIME STEP   84
 SOLVING FOR ZETA FOR LAYER     1 ZONE     2

       1 UPPER PART EQS.         1 LOWER PART EQS.    BAND WIDTH + 1 =*****
 STRESS PERIOD=  2 TIMESTEP= 84 LAYER=  1 ZONE=  2 ACTIVE CELLS=    1 NUMBER OF EQUATIONS=       1
 
 SOLVING FOR HEAD 

 NO OUTPUT CONTROL FOR STRESS PERIOD    2   TIME STEP   85
 SOLVING FOR ZETA FOR LAYER     1 ZONE     2

       0 UPPER PART EQS.         2 LOWER PART EQS.    BAND WIDTH + 1 =*****
 STRESS PERIOD=  2 TIMESTEP= 85 LAYER=  1 ZONE=  2 ACTIVE CELLS=    2 NUMBER OF EQUATIONS=       2
 
 SOLVING FOR HEAD 

 NO OUTPUT CONTROL FOR STRESS PERIOD    2   TIME STEP   86
 SOLVING FOR ZETA FOR LAYER     1 ZONE     2

       1 UPPER PART EQS.         1 LOWER PART EQS.    BAND WIDTH + 1 =*****
 STRESS PERIOD=  2 TIMESTEP= 86 LAYER=  1 ZONE=  2 ACTIVE CELLS=    1 NUMBER OF EQUATIONS=       1
 
 SOLVING FOR HEAD 

 NO OUTPUT CONTROL FOR STRESS PERIOD    2   TIME STEP   87
 SOLVING FOR ZETA FOR LAYER     1 ZONE     2

       0 UPPER PART EQS.         2 LOWER PART EQS.    BAND WIDTH + 1 =*****
 STRESS PERIOD=  2 TIMESTEP= 87 LAYER=  1 ZONE=  2 ACTIVE CELLS=    2 NUMBER OF EQUATIONS=       2
 
 SOLVING FOR HEAD 

 NO OUTPUT CONTROL FOR STRESS PERIOD    2   TIME STEP   88
 SOLVING FOR ZETA FOR LAYER     1 ZONE     2

       1 UPPER PART EQS.         1 LOWER PART EQS.    BAND WIDTH + 1 =*****
 STRESS PERIOD=  2 TIMESTEP= 88 LAYER=  1 ZONE=  2 ACTIVE CELLS=    1 NUMBER OF EQUATIONS=       1
 
 SOLVING FOR HEAD 

 NO OUTPUT CONTROL FOR STRESS PERIOD    2   TIME STEP   89
 SOLVING FOR ZETA FOR LAYER     1 ZONE     2

       0 UPPER PART EQS.         2 LOWER PART EQS.    BAND WIDTH + 1 =*****
 STRESS PERIOD=  2 TIMESTEP= 89 LAYER=  1 ZONE=  2 ACTIVE CELLS=    2 NUMBER OF EQUATIONS=       2
 
 SOLVING FOR HEAD 

 NO OUTPUT CONTROL FOR STRESS PERIOD    2   TIME STEP   90
 SOLVING FOR ZETA FOR LAYER     1 ZONE     2

       1 UPPER PART EQS.         1 LOWER PART EQS.    BAND WIDTH + 1 =*****
 STRESS PERIOD=  2 TIMESTEP= 90 LAYER=  1 ZONE=  2 ACTIVE CELLS=    1 NUMBER OF EQUATIONS=       1
 
 SOLVING FOR HEAD 

 NO OUTPUT CONTROL FOR STRESS PERIOD    2   TIME STEP   91
 SOLVING FOR ZETA FOR LAYER     1 ZONE     2

       0 UPPER PART EQS.         2 LOWER PART EQS.    BAND WIDTH + 1 =*****
 STRESS PERIOD=  2 TIMESTEP= 91 LAYER=  1 ZONE=  2 ACTIVE CELLS=    2 NUMBER OF EQUATIONS=       2
 
 SOLVING FOR HEAD 

 NO OUTPUT CONTROL FOR STRESS PERIOD    2   TIME STEP   92
 SOLVING FOR ZETA FOR LAYER     1 ZONE     2

       1 UPPER PART EQS.         1 LOWER PART EQS.    BAND WIDTH + 1 =*****
 STRESS PERIOD=  2 TIMESTEP= 92 LAYER=  1 ZONE=  2 ACTIVE CELLS=    1 NUMBER OF EQUATIONS=       1
 
 SOLVING FOR HEAD 

 NO OUTPUT CONTROL FOR STRESS PERIOD    2   TIME STEP   93
 SOLVING FOR ZETA FOR LAYER     1 ZONE     2

       0 UPPER PART EQS.         2 LOWER PART EQS.    BAND WIDTH + 1 =*****
 STRESS PERIOD=  2 TIMESTEP= 93 LAYER=  1 ZONE=  2 ACTIVE CELLS=    2 NUMBER OF EQUATIONS=       2
 
 SOLVING FOR HEAD 

 NO OUTPUT CONTROL FOR STRESS PERIOD    2   TIME STEP   94
 SOLVING FOR ZETA FOR LAYER     1 ZONE     2

       1 UPPER PART EQS.         1 LOWER PART EQS.    BAND WIDTH + 1 =*****
 STRESS PERIOD=  2 TIMESTEP= 94 LAYER=  1 ZONE=  2 ACTIVE CELLS=    1 NUMBER OF EQUATIONS=       1
 
 SOLVING FOR HEAD 

 NO OUTPUT CONTROL FOR STRESS PERIOD    2   TIME STEP   95
 SOLVING FOR ZETA FOR LAYER     1 ZONE     2

       0 UPPER PART EQS.         2 LOWER PART EQS.    BAND WIDTH + 1 =*****
 STRESS PERIOD=  2 TIMESTEP= 95 LAYER=  1 ZONE=  2 ACTIVE CELLS=    2 NUMBER OF EQUATIONS=       2
 
 SOLVING FOR HEAD 

 NO OUTPUT CONTROL FOR STRESS PERIOD    2   TIME STEP   96
 SOLVING FOR ZETA FOR LAYER     1 ZONE     2

       1 UPPER PART EQS.         1 LOWER PART EQS.    BAND WIDTH + 1 =*****
 STRESS PERIOD=  2 TIMESTEP= 96 LAYER=  1 ZONE=  2 ACTIVE CELLS=    1 NUMBER OF EQUATIONS=       1
 
 SOLVING FOR HEAD 

 NO OUTPUT CONTROL FOR STRESS PERIOD    2   TIME STEP   97
 SOLVING FOR ZETA FOR LAYER     1 ZONE     2

       0 UPPER PART EQS.         2 LOWER PART EQS.    BAND WIDTH + 1 =*****
 STRESS PERIOD=  2 TIMESTEP= 97 LAYER=  1 ZONE=  2 ACTIVE CELLS=    2 NUMBER OF EQUATIONS=       2
 
 SOLVING FOR HEAD 

 NO OUTPUT CONTROL FOR STRESS PERIOD    2   TIME STEP   98
 SOLVING FOR ZETA FOR LAYER     1 ZONE     2

       1 UPPER PART EQS.         1 LOWER PART EQS.    BAND WIDTH + 1 =*****
 STRESS PERIOD=  2 TIMESTEP= 98 LAYER=  1 ZONE=  2 ACTIVE CELLS=    1 NUMBER OF EQUATIONS=       1
 
 SOLVING FOR HEAD 

 NO OUTPUT CONTROL FOR STRESS PERIOD    2   TIME STEP   99
 SOLVING FOR ZETA FOR LAYER     1 ZONE     2

       0 UPPER PART EQS.         2 LOWER PART EQS.    BAND WIDTH + 1 =*****
 STRESS PERIOD=  2 TIMESTEP= 99 LAYER=  1 ZONE=  2 ACTIVE CELLS=    2 NUMBER OF EQUATIONS=       2
 
 SOLVING FOR HEAD 

 OUTPUT CONTROL FOR STRESS PERIOD    2   TIME STEP  100
    SAVE HEAD FOR ALL LAYERS
    SAVE BUDGET
 SOLVING FOR ZETA FOR LAYER     1 ZONE     2

       1 UPPER PART EQS.         1 LOWER PART EQS.    BAND WIDTH + 1 =*****
 STRESS PERIOD=  2 TIMESTEP=100 LAYER=  1 ZONE=  2 ACTIVE CELLS=    1 NUMBER OF EQUATIONS=       1


                      VOLUMETRIC SWI ZONE BUDGET FOR ENTIRE MODEL
                     AT END OF TIME STEP  100 IN STRESS PERIOD   2
                                      ZONE     1
  -----------------------------------------------------------------------------------

        CUMULATIVE VOLUMES      L**3       RATES FOR THIS TIME STEP      L**3/T
        ------------------                 ------------------------

              IN:                                      IN:
              ---                                      ---
             BOUNDARIES =         913.1250            BOUNDARIES =           0.2500
          CONSTANT HEAD =      173507.4531         CONSTANT HEAD =          47.5823
            ZONE CHANGE =        5167.5400           ZONE CHANGE =       3.3767E-02
       ZONE CHG TIP/TOE =       86861.7031      ZONE CHG TIP/TOE =       3.4247E-02
            ZONE MIXING =           0.0000           ZONE MIXING =           0.0000

               TOTAL IN =      266449.8125              TOTAL IN =          47.9003

             OUT:                                     OUT:
             ----                                     ----
             BOUNDARIES =          39.2130            BOUNDARIES =           0.0000
          CONSTANT HEAD =           2.4500         CONSTANT HEAD =           0.0000
            ZONE CHANGE =       88627.2188           ZONE CHANGE =           0.0000
       ZONE CHG TIP/TOE =          63.0000      ZONE CHG TIP/TOE =       2.7397E-04
            ZONE MIXING =           0.0000           ZONE MIXING =           0.0000

              TOTAL OUT =       88731.8828             TOTAL OUT =       2.7397E-04

               IN - OUT =      177717.9375              IN - OUT =          47.9000

    PERCENT DISCREPANCY =         100.07     PERCENT DISCREPANCY =         200.00



                      VOLUMETRIC SWI ZONE BUDGET FOR ENTIRE MODEL
                     AT END OF TIME STEP  100 IN STRESS PERIOD   2
                                      ZONE     2
  -----------------------------------------------------------------------------------

        CUMULATIVE VOLUMES      L**3       RATES FOR THIS TIME STEP      L**3/T
        ------------------                 ------------------------

              IN:                                      IN:
              ---                                      ---
             BOUNDARIES =         184.3248            BOUNDARIES =       5.0000E-02
          CONSTANT HEAD =           0.0000         CONSTANT HEAD =           0.0000
            ZONE CHANGE =       14038.4541           ZONE CHANGE =           0.0000
       ZONE CHG TIP/TOE =      399150.5312      ZONE CHG TIP/TOE =         174.5522
            ZONE MIXING =           0.0000           ZONE MIXING =           0.0000

               TOTAL IN =      413373.3125              TOTAL IN =         174.6022

             OUT:                                     OUT:
             ----                                     ----
             BOUNDARIES =           0.0000            BOUNDARIES =           0.0000
          CONSTANT HEAD =           0.0000         CONSTANT HEAD =           0.0000
            ZONE CHANGE =      399224.2812           ZONE CHANGE =         174.5866
       ZONE CHG TIP/TOE =          61.2500      ZONE CHG TIP/TOE =       3.4247E-02
            ZONE MIXING =           0.0000           ZONE MIXING =           0.0000

              TOTAL OUT =      399285.5312             TOTAL OUT =         174.6209

               IN - OUT =       14087.7812              IN - OUT =      -1.8723E-02

    PERCENT DISCREPANCY =           3.47     PERCENT DISCREPANCY =          -0.01


 HEAD WILL BE SAVED ON UNIT   51 AT END OF TIME STEP  100, STRESS PERIOD    2
1
  VOLUMETRIC BUDGET FOR ENTIRE MODEL AT END OF TIME STEP  100, STRESS PERIOD   2
  ------------------------------------------------------------------------------

     CUMULATIVE VOLUMES      L**3       RATES FOR THIS TIME STEP      L**3/T
     ------------------                 ------------------------

           IN:                                      IN:
           ---                                      ---
             STORAGE =         107.0330               STORAGE =       4.4242E-05
       CONSTANT HEAD =      173610.5156         CONSTANT HEAD =          47.5823
          SWIADDTOCH =           0.0000            SWIADDTOCH =           0.0000
               WELLS =           0.0000                 WELLS =           0.0000
            RECHARGE =        8944.9414              RECHARGE =           2.4500

            TOTAL IN =      182662.4844              TOTAL IN =          50.0323

          OUT:                                     OUT:
          ----                                     ----
             STORAGE =          57.1317               STORAGE =       3.2334E-02
       CONSTANT HEAD =           0.0000         CONSTANT HEAD =           0.0000
          SWIADDTOCH =         105.5142            SWIADDTOCH =           0.0000
               WELLS =      182500.0000                 WELLS =          50.0000
            RECHARGE =           0.0000              RECHARGE =           0.0000

           TOTAL OUT =      182662.6406             TOTAL OUT =          50.0323

            IN - OUT =          -0.1562              IN - OUT =       3.8147E-06

 PERCENT DISCREPANCY =          -0.00     PERCENT DISCREPANCY =           0.00






         TIME SUMMARY AT END OF TIME STEP  100 IN STRESS PERIOD    2
                    SECONDS     MINUTES      HOURS       DAYS        YEARS
                    -----------------------------------------------------------
   TIME STEP LENGTH 3.15360E+06  52560.      876.00      36.500     9.99316E-02
 STRESS PERIOD TIME 3.15360E+08 5.25600E+06  87600.      3650.0      9.9932    
         TOTAL TIME 3.15446E+08 5.25744E+06  87624.      3651.0      9.9959    
1

 Run end date and time (yyyy/mm/dd hh:mm:ss): 2025/08/07 18:24:48
 Elapsed run time:  0.007 Seconds

