                                  MODFLOW-2005     
      U.S. GEOLOGICAL SURVEY MODULAR FINITE-DIFFERENCE GROUND-WATER FLOW MODEL
                            VERSION 1.12.00 2/3/2017

 LIST FILE: mp6_demo.list
                         UNIT    2

 OPENING mp6_demo.dis
 FILE TYPE:DIS   UNIT   11   STATUS:OLD    
 FORMAT:FORMATTED              ACCESS:SEQUENTIAL          

 OPENING mp6_demo.bas
 FILE TYPE:BAS6   UNIT   13   STATUS:OLD    
 FORMAT:FORMATTED              ACCESS:SEQUENTIAL          

 OPENING mp6_demo.lpf
 FILE TYPE:LPF   UNIT   15   STATUS:OLD    
 FORMAT:FORMATTED              ACCESS:SEQUENTIAL          

 OPENING mp6_demo.rch
 FILE TYPE:RCH   UNIT   19   STATUS:OLD    
 FORMAT:FORMATTED              ACCESS:SEQUENTIAL          

 OPENING mp6_demo.wel
 FILE TYPE:WEL   UNIT   20   STATUS:OLD    
 FORMAT:FORMATTED              ACCESS:SEQUENTIAL          

 OPENING mp6_demo.mnw2
 FILE TYPE:MNW2   UNIT   34   STATUS:OLD    
 FORMAT:FORMATTED              ACCESS:SEQUENTIAL          

 OPENING mp6_demo.oc
 FILE TYPE:OC   UNIT   14   STATUS:OLD    
 FORMAT:FORMATTED              ACCESS:SEQUENTIAL          

 OPENING mp6_demo.pcg
 FILE TYPE:PCG   UNIT   27   STATUS:OLD    
 FORMAT:FORMATTED              ACCESS:SEQUENTIAL          

 OPENING mp6_demo.hds
 FILE TYPE:DATA(BINARY)   UNIT   51   STATUS:REPLACE
 FORMAT:UNFORMATTED            ACCESS:STREAM              

 BAS -- BASIC PACKAGE, VERSION 7, 5/2/2005 INPUT READ FROM UNIT   13
 
 MODFLOW was compiled using mixed precision
 Precision of REAL variables:           6
 Precision of DOUBLE PRECISION variables:          15

 DISCRETIZATION INPUT DATA READ FROM UNIT   11
 # DIS package for MODFLOW-2005 generated by Flopy 3.9.3
    5 LAYERS        21 ROWS        21 COLUMNS
    3 STRESS PERIOD(S) IN SIMULATION
 MODEL TIME UNIT IS DAYS
 MODEL LENGTH UNIT IS METERS
  Confining bed flag for each layer:
   0   0   0   0   0



                               DELR
 READING ON UNIT   11 WITH FORMAT: (21E15.6)           



                               DELC
 READING ON UNIT   11 WITH FORMAT: (21E15.6)           

 TOP ELEVATION OF LAYER 1 =   100.000    

   MODEL LAYER BOTTOM EL. =   80.0000     FOR LAYER   1

   MODEL LAYER BOTTOM EL. =   60.0000     FOR LAYER   2

   MODEL LAYER BOTTOM EL. =   40.0000     FOR LAYER   3

   MODEL LAYER BOTTOM EL. =   20.0000     FOR LAYER   4

   MODEL LAYER BOTTOM EL. =   0.00000     FOR LAYER   5


 STRESS PERIOD     LENGTH       TIME STEPS     MULTIPLIER FOR DELT    SS FLAG
 ----------------------------------------------------------------------------
        1         365.0000          1                    1.000         SS
        2         365.0000          1                    1.000         TR
        3         365.0000          1                    1.000         TR

 COMBINED STEADY-STATE AND TRANSIENT SIMULATION



 
 # BAS6 package for MODFLOW-2005 generated by Flopy 3.9.3                        
 THE FREE FORMAT OPTION HAS BEEN SELECTED



                     BOUNDARY ARRAY FOR LAYER   1
 READING ON UNIT   13 WITH FORMAT: (21I10)             



                     BOUNDARY ARRAY FOR LAYER   2
 READING ON UNIT   13 WITH FORMAT: (21I10)             



                     BOUNDARY ARRAY FOR LAYER   3
 READING ON UNIT   13 WITH FORMAT: (21I10)             



                     BOUNDARY ARRAY FOR LAYER   4
 READING ON UNIT   13 WITH FORMAT: (21I10)             



                     BOUNDARY ARRAY FOR LAYER   5
 READING ON UNIT   13 WITH FORMAT: (21I10)             

 AQUIFER HEAD WILL BE SET TO  -999.99     AT ALL NO-FLOW NODES (IBOUND=0).



                       INITIAL HEAD FOR LAYER   1
 READING ON UNIT   13 WITH FORMAT: (21E15.6)           



                       INITIAL HEAD FOR LAYER   2
 READING ON UNIT   13 WITH FORMAT: (21E15.6)           



                       INITIAL HEAD FOR LAYER   3
 READING ON UNIT   13 WITH FORMAT: (21E15.6)           



                       INITIAL HEAD FOR LAYER   4
 READING ON UNIT   13 WITH FORMAT: (21E15.6)           



                       INITIAL HEAD FOR LAYER   5
 READING ON UNIT   13 WITH FORMAT: (21E15.6)           
 # OC package for MODFLOW-2005 generated by Flopy 3.9.3

 OUTPUT CONTROL IS SPECIFIED ONLY AT TIME STEPS FOR WHICH OUTPUT IS DESIRED
 COMPACT CELL-BY-CELL BUDGET FILES WILL BE WRITTEN
 AUXILIARY DATA WILL BE SAVED IN CELL-BY-CELL BUDGET FILES
 HEAD PRINT FORMAT CODE IS   0    DRAWDOWN PRINT FORMAT CODE IS   0
 HEADS WILL BE SAVED ON UNIT   51    DRAWDOWNS WILL BE SAVED ON UNIT    0

 LPF -- LAYER-PROPERTY FLOW PACKAGE, VERSION 7, 5/2/2005
         INPUT READ FROM UNIT   15
 # LPF package for MODFLOW-2005 generated by Flopy 3.9.3
 HEAD AT CELLS THAT CONVERT TO DRY=  -999.00    
 No named parameters

   LAYER FLAGS:
 LAYER       LAYTYP        LAYAVG         CHANI        LAYVKA        LAYWET
 ---------------------------------------------------------------------------
    1             1             0     1.000E+00             0             0
    2             0             0     1.000E+00             0             0
    3             0             0     1.000E+00             0             0
    4             0             0     1.000E+00             0             0
    5             0             0     1.000E+00             0             0

   INTERPRETATION OF LAYER FLAGS:
                        INTERBLOCK     HORIZONTAL    DATA IN
         LAYER TYPE   TRANSMISSIVITY   ANISOTROPY   ARRAY VKA   WETTABILITY
 LAYER      (LAYTYP)      (LAYAVG)       (CHANI)      (LAYVKA)      (LAYWET)
 ---------------------------------------------------------------------------
    1   CONVERTIBLE      HARMONIC     1.000E+00    VERTICAL K  NON-WETTABLE
    2      CONFINED      HARMONIC     1.000E+00    VERTICAL K  NON-WETTABLE
    3      CONFINED      HARMONIC     1.000E+00    VERTICAL K  NON-WETTABLE
    4      CONFINED      HARMONIC     1.000E+00    VERTICAL K  NON-WETTABLE
    5      CONFINED      HARMONIC     1.000E+00    VERTICAL K  NON-WETTABLE

 WETTING CAPABILITY IS NOT ACTIVE IN ANY LAYER

    HYD. COND. ALONG ROWS =   50.0000     FOR LAYER   1

      VERTICAL HYD. COND. =   10.0000     FOR LAYER   1

         SPECIFIC STORAGE =  1.000000E-05 FOR LAYER   1

           SPECIFIC YIELD =  0.200000     FOR LAYER   1

    HYD. COND. ALONG ROWS =  1.000000E-02 FOR LAYER   2

      VERTICAL HYD. COND. =  1.000000E-03 FOR LAYER   2

         SPECIFIC STORAGE =  1.000000E-05 FOR LAYER   2

    HYD. COND. ALONG ROWS =   25.0000     FOR LAYER   3

      VERTICAL HYD. COND. =   5.00000     FOR LAYER   3

         SPECIFIC STORAGE =  1.000000E-05 FOR LAYER   3

    HYD. COND. ALONG ROWS =  1.000000E-02 FOR LAYER   4

      VERTICAL HYD. COND. =  1.000000E-03 FOR LAYER   4

         SPECIFIC STORAGE =  1.000000E-05 FOR LAYER   4

    HYD. COND. ALONG ROWS =   100.000     FOR LAYER   5

      VERTICAL HYD. COND. =   20.0000     FOR LAYER   5

         SPECIFIC STORAGE =  1.000000E-05 FOR LAYER   5

 WEL -- WELL PACKAGE, VERSION 7, 5/2/2005 INPUT READ FROM UNIT   20
 # WEL package for MODFLOW-2005 generated by Flopy 3.9.3
 No named parameters
 MAXIMUM OF      1 ACTIVE WELLS AT ONE TIME


     0 Well parameters

 RCH -- RECHARGE PACKAGE, VERSION 7, 5/2/2005 INPUT READ FROM UNIT   19
 # RCH package for MODFLOW-2005 generated by Flopy 3.9.3
 No named parameters
 OPTION 3 -- RECHARGE TO HIGHEST ACTIVE NODE IN EACH VERTICAL COLUMN


     0 Recharge parameters

 PCG -- CONJUGATE-GRADIENT SOLUTION PACKAGE, VERSION 7, 5/2/2005
 # PCG package for MODFLOW-2005 generated by Flopy 3.9.3
 MAXIMUM OF    100 CALLS OF SOLUTION ROUTINE
 MAXIMUM OF     30 INTERNAL ITERATIONS PER CALL TO SOLUTION ROUTINE
 MATRIX PRECONDITIONING TYPE :    1



                                    SOLUTION BY THE CONJUGATE-GRADIENT METHOD
                                   -------------------------------------------
                    MAXIMUM NUMBER OF CALLS TO PCG ROUTINE =      100
                        MAXIMUM ITERATIONS PER CALL TO PCG =       30
                               MATRIX PRECONDITIONING TYPE =        1
        RELAXATION FACTOR (ONLY USED WITH PRECOND. TYPE 1) =    0.10000E+01
 PARAMETER OF POLYNOMIAL PRECOND. = 2 (2) OR IS CALCULATED :        0
                         HEAD CHANGE CRITERION FOR CLOSURE =    0.10000E-03
                     RESIDUAL CHANGE CRITERION FOR CLOSURE =    0.10000E-02
            PCG HEAD AND RESIDUAL CHANGE PRINTOUT INTERVAL =      999
     PRINTING FROM SOLVER IS LIMITED(1) OR SUPPRESSED (>1) =        3
                            STEADY-STATE DAMPING PARAMETER =    0.10000E+01
                               TRANSIENT DAMPING PARAMETER =    0.10000E+01

 MNW2 -- MULTI-NODE WELL 2 PACKAGE, VERSION 7.4, 1/5/2017.
    INPUT READ FROM UNIT  34
 # MNW2 package for MODFLOW-2005 generated by Flopy 3.9.3
 MAXIMUM OF    1 ACTIVE MULTI-NODE WELLS AT ONE TIME
 
 MNWPRNT =            0
1
                            STRESS PERIOD NO.    1, LENGTH =   365.0000    
                            -----------------------------------------------

                              NUMBER OF TIME STEPS =     1

                               MULTIPLIER FOR DELT =     1.000

                            INITIAL TIME STEP SIZE =   365.0000    

 WELL NO.  LAYER   ROW   COL   STRESS RATE         
 --------------------------------------------------
      1      4     13     13     -0.4000E+05

      1 WELL 

                 RECHARGE =  1.000000E-03
 
 MNW2 Input:
 
 
 WELLID             NNODES    LOSSTYPE PUMPLOC  Qlimit  PPFLAG PUMPCAP
 WELL1                   3      SKIN        -1       0       0       0
 
 ***WARNING*** Pump location specified but not found within a MNW2 node
  Pump assumed to be at top node
 
 MNW2:            1  active well in stress period            1
 
 
 WELLNAME = WELL1               
MNW2 Well well1                active, desired Q = -5.0000E+03 for stress period    1
 
 SOLVING FOR HEAD 

 MAXIMUM HEAD CHANGE FOR EACH ITERATION (1 INDICATES THE FIRST INNER ITERATION):

    HEAD CHANGE    HEAD CHANGE    HEAD CHANGE    HEAD CHANGE    HEAD CHANGE 
   LAYER,ROW,COL  LAYER,ROW,COL  LAYER,ROW,COL  LAYER,ROW,COL  LAYER,ROW,COL
 ---------------------------------------------------------------------------
  1  -515.1      0  -254.3      0  -34.90      0   11.85      0   33.17    
   (  4, 13, 13)  (  4, 13, 13)  (  4, 13, 13)  (  1, 20, 20)  (  2, 13, 13)
  0   45.12      0   66.60      0   174.8      0   540.9      0   1629.    
   (  1,  4, 20)  (  1,  6, 14)  (  2, 14, 13)  (  1, 18,  2)  (  4, 12, 12)
  0   5292.      0  0.2135E+05  0  0.4993E+05  0  0.2039E+06  0  0.5045E+06
   (  4, 12, 13)  (  1, 18,  2)  (  4, 14, 11)  (  2, 13, 13)  (  2,  2, 13)
  0  0.2097E+07  0  0.4311E+07  0  0.1905E+08  0  0.6132E+08  0  0.1711E+09
   (  4, 12, 14)  (  1,  5, 20)  (  4, 12, 12)  (  4, 12, 12)  (  2,  7,  2)
  0  0.7131E+09  0  0.1873E+10  0  0.3598E+10  0  0.1723E+11  0  0.4181E+11
   (  1,  4, 20)  (  2, 13, 13)  (  1, 20,  8)  (  2, 13, 13)  (  1,  5, 20)
  0  0.1487E+12  0  0.5030E+12  0  0.1559E+13  0  0.5859E+13  0  0.2118E+14
   (  1,  2, 20)  (  2,  3, 12)  (  1,  7, 19)  (  1, 18, 20)  (  1, 10, 20)
  1 -0.9652E+07  0  0.5397E+07  0 -0.8258E+07  0  0.6721E+07  0  0.6030E+07
   (  1,  4, 19)  (  1, 20, 20)  (  2,  8, 19)  (  1,  2, 20)  (  3, 20,  3)
  0 -0.3324E+07  0 -0.2486E+07  0  0.1320E+07  0 -0.2104E+07  0  0.2019E+07
   (  2, 20,  7)  (  1, 20,  2)  (  1, 20, 14)  (  1,  2, 20)  (  3, 20,  8)
  0 -0.1588E+07  0 -0.1358E+07  0  0.6086E+06  0 -0.2583E+06  0 -0.3092E+06
   (  2, 20, 13)  (  2,  3, 20)  (  2,  8, 19)  (  1, 19, 19)  (  2,  6, 15)
  0  0.2533E+06  0 -0.1230E+06  0 -0.1022E+06  0  0.2073E+05  0 -0.6869E+05
   (  2,  3, 20)  (  2, 18, 20)  (  1, 20,  3)  (  1, 20, 20)  (  2, 18, 20)
  0 -0.3803E+05  0  0.1952E+05  0 -0.1392E+05  0  -3550.      0  -7310.    
   (  2,  6, 20)  (  2,  4, 20)  (  2,  9, 19)  (  1, 19, 20)  (  2, 16, 12)
  0   5968.      0  -3427.      0   3523.      0   1040.      0  -1356.    
   (  2, 20, 18)  (  2, 20,  7)  (  2, 18, 20)  (  1, 17, 20)  (  1, 19, 12)
  1  0.1825E+07  0  0.4992E+07  0  0.2103E+09  0  0.8529E+09  0  0.7380E+09
   (  5, 13, 13)  (  1, 20, 20)  (  2, 20, 10)  (  2, 18, 20)  (  5,  4, 20)
  0  0.1156E+10  0  0.4907E+09  0  0.4920E+09  0  0.2088E+10  0  0.5809E+10
   (  2,  5, 20)  (  2,  6, 20)  (  3, 20, 20)  (  2, 20,  6)  (  2, 13, 13)
  0  0.8793E+10  0  0.1193E+10  0  0.1757E+11  0  0.1487E+11  0  0.5283E+11
   (  2, 13, 13)  (  5, 14, 12)  (  2, 13, 13)  (  5, 12, 14)  (  1, 14,  2)
  0  0.1501E+12  0  0.7088E+10  0  0.1545E+12  0  0.5994E+11  0  0.9013E+12
   (  2, 19, 19)  (  1, 20, 20)  (  2, 20, 18)  (  4, 13, 13)  (  2,  3, 20)
  0  0.1954E+13  0  0.5232E+12  0  0.2412E+13  0  0.2262E+13  0  0.3283E+13
   (  4, 12, 12)  (  4, 12, 12)  (  2, 20, 15)  (  4, 12, 12)  (  2, 15, 19)
  0  0.1229E+14  0  0.1889E+13  0  0.2630E+14  0  0.6299E+14  0  0.9959E+13
   (  5, 20,  7)  (  1, 20, 20)  (  4, 12, 13)  (  4, 16, 11)  (  3, 20, 20)
  1  0.6464E+07  0 -0.1277E+08  0  0.9015E+07  0  0.1649E+08  0  0.7914E+07
   (  1, 20, 20)  (  1,  5, 20)  (  2, 20, 13)  (  2, 13, 13)  (  3, 20,  5)
  0  0.4753E+07  0  0.2449E+07  0  0.3831E+07  0  0.2077E+07  0 -0.1312E+07
   (  2, 13, 13)  (  1, 20, 20)  (  4,  4, 20)  (  4, 20,  4)  (  1, 20,  4)
  0 -0.1590E+07  0 -0.1014E+07  0  0.6303E+06  0 -0.6345E+06  0  0.6516E+06
   (  2, 20,  5)  (  2, 13, 13)  (  1, 20, 20)  (  2, 13, 13)  (  4, 12, 13)
  0  0.3328E+06  0 -0.2671E+06  0 -0.1406E+06  0 -0.5152E+05  0 -0.1027E+06
   (  4, 12, 13)  (  1,  4, 20)  (  2, 11, 11)  (  1, 20, 20)  (  3, 18,  3)
  0 -0.8227E+05  0  0.4633E+05  0 -0.2381E+05  0  0.1250E+05  0  -3848.    
   (  2, 20, 19)  (  2, 13, 13)  (  2, 20, 11)  (  1, 20,  4)  (  1, 20, 20)
  0  0.1082E+05  0   6945.      0  -3544.      0  -2892.      0   1922.    
   (  4, 13, 13)  (  2,  4, 19)  (  2,  4, 20)  (  2, 13, 13)  (  4, 13, 13)
  1  0.1440E+07  0  0.2313E+07  0  0.4883E+08  0  0.1277E+09  0  0.9853E+08
   (  5, 13, 13)  (  1, 20, 20)  (  2, 20,  9)  (  2, 19, 19)  (  2, 20,  4)
  0  0.5415E+07  0  0.9735E+08  0  0.2550E+08  0  0.1486E+09  0  0.7932E+08
   (  1, 20, 20)  (  5, 13, 13)  (  2, 14, 14)  (  5,  2, 20)  (  2, 13, 13)
  0  0.9693E+07  0  0.2013E+09  0  0.1767E+09  0  0.6909E+08  0  0.3713E+09
   (  5, 18,  8)  (  2, 13, 13)  (  2, 13, 13)  (  5, 20,  8)  (  2, 20,  9)
  0  0.2234E+09  0  0.1014E+10  0  0.5547E+10  0  0.9727E+10  0  0.6102E+10
   (  1, 20, 20)  (  2, 19, 19)  (  2,  8,  3)  (  2, 15, 20)  (  1, 20, 12)
  0  0.1333E+11  0  0.3751E+10  0  0.6218E+11  0  0.1618E+12  0  0.8190E+11
   (  4, 12, 12)  (  2, 20, 16)  (  4, 12, 13)  (  4, 13, 12)  (  2, 20,  9)
  0  0.3262E+11  0  0.7195E+12  0  0.4590E+12  0  0.5901E+12  0  0.1852E+13
   (  1, 20, 20)  (  2,  2, 20)  (  2, 12, 12)  (  5, 19,  6)  (  2, 13, 13)
  1 -0.1060E+07  0 -0.2254E+07  0  0.1903E+07  0 -0.1857E+07  0  0.1115E+07
   (  1, 20, 20)  (  2, 20,  3)  (  2, 20, 16)  (  2,  3, 20)  (  3, 20,  6)
  0  0.1180E+07  0  0.3718E+06  0 -0.6278E+06  0  0.5836E+06  0  0.3194E+06
   (  3,  3, 20)  (  1, 20, 12)  (  2,  5, 18)  (  3,  8, 18)  (  3, 20,  4)
  0  0.1893E+06  0 -0.1974E+06  0  0.8776E+05  0 -0.1180E+06  0 -0.8145E+05
   (  3,  5, 20)  (  2, 20,  3)  (  1, 20, 18)  (  1,  3, 20)  (  5, 20,  5)
  0  0.6272E+05  0 -0.3446E+05  0 -0.2138E+05  0  0.2115E+05  0 -0.1574E+05
   (  2, 20,  2)  (  1, 20,  4)  (  1, 20, 17)  (  1, 20,  8)  (  3,  2, 20)
  0 -0.1640E+05  0  -7200.      0   1933.      0  -3803.      0  -2265.    
   (  2, 14, 14)  (  4, 20,  3)  (  1, 20, 20)  (  1,  6,  6)  (  2, 20,  8)
  0  -1226.      0  -794.3      0  -744.4      0   161.7      0  -909.8    
   (  4, 20, 11)  (  2, 13, 13)  (  4,  5, 20)  (  1, 20, 20)  (  2, 13, 13)
  1  0.1366E+07  0  0.2409E+07  0  0.4867E+08  0  0.1258E+09  0  0.9433E+08
   (  3, 20, 20)  (  3, 20, 20)  (  3, 13, 13)  (  3, 13, 13)  (  3, 13, 13)
  0  0.5650E+07  0  0.9604E+08  0  0.1812E+08  0  0.9241E+08  0  0.8135E+08
   (  1, 20, 20)  (  4, 13, 13)  (  2, 20, 19)  (  4, 12, 13)  (  4, 13, 12)
  0  0.7445E+07  0  0.1917E+09  0  0.2081E+09  0  0.3040E+08  0  0.3922E+08
   (  1, 20, 15)  (  4, 12, 13)  (  4, 13, 12)  (  3, 20, 20)  (  4, 12, 13)
  0  0.6393E+09  0  0.3471E+09  0  0.2761E+10  0  0.4549E+09  0  0.1151E+11
   (  4, 12, 13)  (  4, 20,  8)  (  2, 14, 14)  (  1, 20, 20)  (  2, 13, 13)
  0  0.1959E+10  0  0.7675E+10  0  0.1366E+10  0  0.1844E+11  0  0.3989E+11
   (  2, 13, 13)  (  3,  9, 18)  (  4,  9, 16)  (  2, 13, 13)  (  2, 13, 13)
  0  0.1203E+12  0  0.1455E+11  0  0.7814E+12  0  0.9324E+11  0  0.9690E+12
   (  2, 13, 13)  (  1, 14, 20)  (  2, 14, 11)  (  4,  2, 20)  (  1, 16,  6)
  1 -0.1116E+07  0 -0.1158E+07  0 -0.2366E+07  0 -0.2259E+07  0 -0.2084E+07
   (  1, 20, 20)  (  1, 20,  5)  (  4, 20,  2)  (  3,  7, 20)  (  4,  3, 20)
  0 -0.1446E+07  0 -0.6779E+06  0 -0.5514E+06  0 -0.4157E+06  0 -0.5732E+06
   (  4, 20,  5)  (  1, 14, 20)  (  3, 19,  9)  (  3,  4, 20)  (  1,  4, 20)
  0 -0.3544E+06  0  0.6678E+05  0 -0.1668E+06  0 -0.1696E+06  0 -0.7704E+05
   (  4, 20,  2)  (  1, 20, 14)  (  4, 12, 13)  (  2, 18,  5)  (  1,  3, 20)
  0 -0.7263E+05  0 -0.3735E+05  0  0.1569E+05  0 -0.2011E+05  0 -0.1282E+05
   (  2, 20,  2)  (  1, 20,  6)  (  1, 20, 17)  (  2, 17, 19)  (  2,  6, 20)
  0  -6930.      0   2652.      0  -3123.      0  -2136.      0  -2031.    
   (  2, 12, 16)  (  1, 20, 12)  (  1,  5, 20)  (  3, 11, 20)  (  3, 13, 13)
  0   917.8      0   934.0      0   197.6      0   787.2      0  -270.1    
   (  4,  9, 17)  (  2, 13, 13)  (  1, 20, 20)  (  2, 13, 13)  (  3, 20, 10)
  1  0.1366E+07  0  0.2444E+07  0  0.4849E+08  0  0.1242E+09  0  0.9411E+08
   (  3, 20, 20)  (  3, 20, 20)  (  3, 13, 13)  (  3, 13, 13)  (  3, 13, 13)
  0  0.5035E+08  0  0.5200E+08  0  0.1206E+09  0  0.1595E+08  0  0.5952E+08
   (  4, 13, 13)  (  1, 20, 20)  (  4, 13, 12)  (  4, 13, 12)  (  2,  9, 20)
  0  0.1140E+09  0  0.9310E+07  0  0.1355E+09  0  0.3793E+09  0  0.3396E+08
   (  2, 18,  8)  (  4, 13, 12)  (  4, 13, 12)  (  4, 12, 13)  (  2, 16, 20)
  0  0.3545E+09  0  0.4320E+09  0  0.8734E+09  0  0.5529E+10  0  0.6442E+10
   (  4, 19,  2)  (  4,  2, 19)  (  2, 14, 14)  (  2, 13, 13)  (  2, 13, 13)
  0  0.2903E+10  0  0.1819E+10  0  0.1520E+11  0  0.3857E+11  0  0.2713E+11
   (  4, 16,  9)  (  1, 14, 20)  (  2, 13, 13)  (  2, 13, 13)  (  3, 20,  7)
  0  0.2721E+12  0  0.3613E+11  0  0.8884E+11  0  0.3765E+12  0  0.1712E+13
   (  2, 11, 14)  (  4,  2, 20)  (  2, 19, 16)  (  3,  6, 20)  (  4, 12, 12)
  1 -0.1584E+07  0  0.7510E+06  0 -0.3245E+07  0 -0.2129E+07  0 -0.2868E+07
   (  4, 20,  4)  (  1, 20, 20)  (  2,  5,  5)  (  3, 20,  6)  (  3,  6, 20)
  0 -0.1558E+07  0 -0.1180E+07  0 -0.2797E+06  0 -0.9152E+06  0 -0.2938E+06
   (  2, 15, 12)  (  2, 14, 20)  (  1, 20, 20)  (  2, 20, 11)  (  4, 10, 15)
  0 -0.3716E+06  0 -0.2313E+06  0 -0.1952E+06  0 -0.5483E+05  0 -0.1287E+06
   (  2, 20,  5)  (  4, 20,  6)  (  2, 13, 13)  (  1, 20, 20)  (  2, 13, 13)
  0 -0.6513E+05  0 -0.5713E+05  0 -0.1616E+05  0   5704.      0 -0.1543E+05
   (  4, 11, 15)  (  2,  2, 20)  (  2, 10, 10)  (  1, 20, 20)  (  1,  5, 20)
  0  -8618.      0  -5033.      0  -4334.      0  -1917.      0   1533.    
   (  4, 12, 12)  (  2, 10, 16)  (  2, 20,  4)  (  1, 19, 13)  (  1, 19, 20)
  0   1523.      0  -896.8      0  -562.7      0  -323.6      0  -139.1    
   (  4,  5, 20)  (  3, 13, 13)  (  2, 14, 14)  (  2,  7, 20)  (  1, 20, 20)
  1  0.1403E+07  0  0.2610E+07  0  0.6874E+08  0  0.2193E+09  0  0.2451E+09
   (  1, 20, 20)  (  3, 20, 20)  (  3, 13, 13)  (  3, 13, 13)  (  4, 13, 13)
  0  0.1587E+08  0  0.4215E+09  0  0.9098E+08  0  0.7912E+09  0  0.4964E+09
   (  1, 20, 20)  (  4, 13, 13)  (  4, 13, 13)  (  4, 13, 12)  (  2, 20,  8)
  0  0.2082E+10  0  0.5048E+09  0  0.3920E+10  0  0.7767E+10  0  0.4052E+10
   (  4, 12, 13)  (  1, 20, 20)  (  4, 13, 12)  (  3, 14, 12)  (  4, 12, 13)
  0  0.1091E+11  0  0.7618E+09  0  0.9132E+11  0  0.3511E+12  0  0.4343E+11
   (  1,  6, 20)  (  4, 20,  8)  (  2, 14, 14)  (  2, 13, 13)  (  1, 20, 17)
  0  0.2076E+12  0  0.3299E+12  0  0.8385E+12  0  0.1769E+13  0  0.7244E+12
   (  4, 16,  8)  (  2, 13, 13)  (  2, 13, 13)  (  2, 13, 13)  (  4, 13, 13)
  0  0.1972E+13  0  0.1275E+14  0  0.2479E+13  0  0.3011E+14  0  0.1312E+13
   (  1, 20,  9)  (  4, 20,  2)  (  4, 13, 13)  (  2, 11, 14)  (  1, 20, 20)
  1 -0.4336E+07  0 -0.8902E+07  0  0.6688E+07  0 -0.6701E+07  0 -0.5680E+07
   (  1, 20, 20)  (  3, 20,  7)  (  2, 19,  9)  (  2, 14, 11)  (  4,  7, 20)
  0 -0.3989E+07  0  0.1166E+07  0  0.2128E+07  0 -0.2788E+07  0 -0.1526E+07
   (  4, 13, 13)  (  1, 20, 20)  (  5, 20,  3)  (  4, 20,  5)  (  3,  4, 20)
  0 -0.7484E+06  0 -0.6068E+06  0 -0.3324E+06  0  0.3795E+06  0 -0.3225E+06
   (  3, 20,  6)  (  2, 12, 12)  (  1, 20, 20)  (  1, 20,  2)  (  4, 13, 12)
  0 -0.2734E+06  0  0.1406E+06  0 -0.8290E+05  0 -0.4657E+05  0  0.4886E+05
   (  1,  2, 20)  (  4, 13, 13)  (  2,  8, 20)  (  1, 11, 20)  (  2, 14, 14)
  0  0.4494E+05  0  0.1744E+05  0  0.1905E+05  0  -4826.      0  0.1248E+05
   (  2, 14, 14)  (  4, 20,  3)  (  2, 19,  6)  (  1, 20, 20)  (  2, 20, 16)
  0  -5017.      0  -4361.      0  -3086.      0  -805.0      0  -2785.    
   (  2,  3, 20)  (  4, 13, 13)  (  4, 13, 13)  (  1, 17, 20)  (  4, 13, 13)
  1  0.1686E+07  0  0.2251E+07  0  0.4788E+08  0  0.1222E+09  0  0.9217E+08
   (  5, 13, 13)  (  1, 20, 20)  (  2, 20,  9)  (  2, 19, 19)  (  2,  4, 20)
  0  0.9387E+08  0  0.4994E+07  0  0.1077E+09  0  0.1801E+08  0  0.5930E+08
   (  2, 12, 12)  (  5, 13, 13)  (  2, 13, 13)  (  5,  2, 20)  (  2, 13, 13)
  0  0.8112E+08  0  0.5215E+07  0  0.9208E+08  0  0.1535E+09  0  0.3806E+08
   (  2, 13, 13)  (  1, 20, 20)  (  2, 13, 13)  (  5,  2, 20)  (  2, 19, 19)
  0  0.5771E+08  0  0.6743E+07  0  0.4715E+09  0  0.1368E+10  0  0.5615E+08
   (  5, 20,  3)  (  5, 20,  5)  (  2,  3, 20)  (  4, 12, 12)  (  1, 20, 20)
  0  0.1492E+10  0  0.4541E+09  0  0.3013E+10  0  0.5907E+10  0  0.1156E+10
   (  4, 12, 12)  (  4, 12, 12)  (  1, 19,  2)  (  2, 20,  9)  (  4, 12, 13)
  0  0.9259E+10  0  0.6583E+11  0  0.1012E+11  0  0.2197E+11  0  0.8728E+11
   (  2,  9, 15)  (  4, 13, 12)  (  3, 20, 20)  (  4, 11, 15)  (  1, 19,  4)
  1 -0.4011E+07  0 -0.1017E+07  0 -0.6378E+07  0 -0.4197E+07  0 -0.8148E+06
   (  1, 20,  8)  (  5,  5, 19)  (  5, 19,  6)  (  2,  7, 20)  (  2, 14,  9)
  0 -0.1093E+07  0 -0.6110E+06  0  0.7786E+05  0 -0.2657E+06  0 -0.2063E+06
   (  2, 16, 19)  (  2, 19,  6)  (  1, 20, 20)  (  4, 11, 11)  (  2, 20, 16)
  0 -0.6374E+05  0 -0.6307E+05  0 -0.5228E+05  0  0.1134E+05  0 -0.3796E+05
   (  4,  7, 18)  (  3,  3, 20)  (  1, 20,  4)  (  1, 20, 20)  (  3,  3, 20)
  0 -0.2363E+05  0 -0.1288E+05  0  -9524.      0   1417.      0  -5763.    
   (  4, 13, 13)  (  1, 20,  5)  (  2, 14, 14)  (  1, 20, 20)  (  2, 14, 14)
  0  -3827.      0  -2141.      0  -924.6      0  -890.1      0  -281.3    
   (  2, 14, 14)  (  2, 20,  2)  (  2,  7, 20)  (  2, 20,  8)  (  1, 20, 20)
  0  -355.9      0  -205.2      0  -210.5      0  -97.28      0  -83.16    
   (  4, 20, 11)  (  4,  5, 20)  (  2, 13, 13)  (  4, 20,  5)  (  1, 20, 11)
  1  0.1366E+07  0  0.2481E+07  0  0.4838E+08  0  0.1237E+09  0  0.9294E+08
   (  1, 20, 20)  (  3, 20, 20)  (  3, 13, 13)  (  3, 13, 13)  (  3, 13, 13)
  0  0.4959E+07  0  0.9173E+08  0  0.1428E+08  0  0.1231E+09  0  0.1048E+09
   (  1, 20, 20)  (  4, 13, 13)  (  2, 20, 19)  (  4, 13, 12)  (  4, 12, 13)
  0  0.7315E+07  0  0.8085E+08  0  0.8373E+08  0  0.1877E+08  0  0.2901E+09
   (  4, 13, 12)  (  4, 13, 12)  (  4, 13, 12)  (  2, 16, 20)  (  4, 12, 13)
  0  0.1732E+08  0  0.2602E+09  0  0.8135E+09  0  0.2657E+10  0  0.7381E+09
   (  4, 20,  9)  (  4, 19,  2)  (  2, 14, 14)  (  2, 13, 13)  (  2, 13, 13)
  0  0.3243E+09  0  0.6395E+10  0  0.2932E+11  0  0.1642E+10  0  0.1383E+11
   (  2, 13, 13)  (  2, 13, 13)  (  2, 13, 13)  (  4,  2, 20)  (  1,  8, 20)
  0  0.3656E+11  0  0.5859E+11  0  0.1643E+12  0  0.1413E+11  0  0.6835E+12
   (  4,  2, 20)  (  2, 16, 20)  (  3, 20,  7)  (  4, 20,  5)  (  2,  4,  4)
  1 -0.1114E+07  0  0.4654E+06  0  0.7936E+06  0  0.8735E+06  0  0.5410E+06
   (  4, 20,  3)  (  1, 20, 20)  (  2, 13, 17)  (  4, 11, 16)  (  3, 20, 11)
  0 -0.5052E+06  0  0.5338E+06  0 -0.1052E+06  0  0.3388E+06  0 -0.1539E+06
   (  3, 20,  7)  (  2, 20,  7)  (  1, 20, 20)  (  1,  2, 20)  (  2, 10, 20)
  0  0.9610E+05  0  0.1073E+06  0  0.4903E+05  0  0.1858E+05  0  0.5741E+05
   (  2,  7, 19)  (  2, 15, 20)  (  4, 12, 12)  (  1, 20, 20)  (  2,  4, 20)
  0  0.3457E+05  0 -0.1771E+05  0  0.1248E+05  0   2297.      0  0.1131E+05
   (  2,  6,  3)  (  2,  2, 20)  (  2, 14, 14)  (  1, 20, 20)  (  2, 14, 14)
  0   5483.      0   3463.      0   2002.      0   959.1      0   1371.    
   (  3, 20,  2)  (  2, 14, 14)  (  2,  8, 20)  (  1, 20, 20)  (  4, 11, 15)
  0   955.2      0   581.8      0   349.2      0   216.3      0   303.7    
   (  2, 17, 20)  (  4,  5, 20)  (  2, 20,  4)  (  2, 19,  8)  (  2, 13, 13)
  1  0.1426E+07  0  0.2325E+07  0  0.5029E+08  0  0.1348E+09  0  0.1018E+09
   (  5, 13, 13)  (  1, 20, 20)  (  2,  9, 20)  (  2, 19, 19)  (  2,  4, 20)
  0  0.1368E+08  0  0.8037E+08  0  0.7059E+08  0  0.2011E+09  0  0.9120E+08
   (  1, 20, 20)  (  5, 13, 13)  (  2, 14, 14)  (  2, 13, 13)  (  3, 20, 13)
  0  0.1647E+08  0  0.4204E+09  0  0.3513E+09  0  0.2970E+09  0  0.2185E+09
   (  4, 20, 17)  (  2, 13, 13)  (  2, 13, 13)  (  5,  9, 20)  (  5, 20,  2)
  0  0.1759E+10  0  0.1286E+10  0  0.1178E+11  0  0.6064E+09  0  0.1189E+10
   (  2, 19, 19)  (  5,  4, 20)  (  2, 20,  3)  (  4, 12, 12)  (  4, 12, 12)
  0  0.4774E+11  0  0.3150E+11  0  0.1945E+11  0  0.7123E+11  0  0.1959E+12
   (  4, 12, 12)  (  2,  6, 19)  (  4, 13, 12)  (  2, 20,  7)  (  4, 12, 13)
  0  0.6170E+11  0  0.4244E+12  0  0.2134E+11  0  0.3546E+13  0  0.7653E+13
   (  3, 20, 20)  (  4, 13, 12)  (  1, 20, 20)  (  4, 12, 13)  (  2, 13, 13)
  1 -0.2232E+07  0  0.3758E+07  0 -0.3574E+07  0 -0.4435E+07  0 -0.3321E+07
   (  1, 20, 20)  (  3,  7, 20)  (  2, 19, 20)  (  5,  6, 20)  (  2, 10, 20)
  0 -0.1999E+07  0  0.6926E+06  0 -0.1674E+07  0 -0.1277E+07  0 -0.1240E+07
   (  2,  5,  5)  (  1,  6, 20)  (  1, 19, 20)  (  2, 20,  7)  (  1, 20,  2)
  0  0.4851E+06  0 -0.4848E+06  0 -0.3172E+06  0  0.6055E+05  0 -0.1423E+06
   (  1, 20,  4)  (  2, 20, 16)  (  1,  5, 17)  (  1, 20, 20)  (  3, 18,  2)
  0 -0.1641E+06  0 -0.5506E+05  0 -0.6334E+05  0 -0.1386E+05  0 -0.3192E+05
   (  2, 19, 19)  (  4,  8,  8)  (  2, 14, 14)  (  1, 20, 20)  (  3,  2, 20)
  0 -0.2091E+05  0 -0.1351E+05  0 -0.1563E+05  0  -7125.      0   1709.    
   (  2, 14, 14)  (  4, 20,  3)  (  2,  8, 20)  (  2, 17, 20)  (  1, 20, 20)
  0  -2646.      0  -2441.      0  -1227.      0  -1538.      0  -1065.    
   (  2,  4, 19)  (  2, 19,  3)  (  4,  5, 20)  (  2, 13, 13)  (  2, 13, 13)
  1  0.1467E+07  0  0.2310E+07  0  0.4857E+08  0  0.1253E+09  0  0.9511E+08
   (  5, 13, 13)  (  1, 20, 20)  (  2,  9, 20)  (  2, 19, 19)  (  2, 20,  4)
  0  0.4700E+07  0  0.1020E+09  0  0.1582E+08  0  0.1381E+09  0  0.7469E+08
   (  1, 20, 20)  (  2, 12, 12)  (  3, 20, 20)  (  2, 13, 13)  (  2, 13, 13)
  0  0.3678E+08  0  0.1188E+09  0  0.2001E+09  0  0.9378E+08  0  0.4375E+09
   (  1, 20, 20)  (  2, 13, 13)  (  2, 13, 13)  (  4, 13, 13)  (  2, 19, 19)
  0  0.1627E+09  0  0.4086E+09  0  0.2885E+10  0  0.4104E+10  0  0.6737E+10
   (  1, 20, 17)  (  5, 20,  6)  (  4, 13, 13)  (  1, 20, 20)  (  4, 12, 12)
  0  0.1398E+10  0  0.2007E+11  0  0.3342E+11  0  0.2419E+11  0  0.5024E+11
   (  2, 20, 16)  (  4, 12, 12)  (  2,  8, 20)  (  1, 18, 20)  (  4, 12, 13)
  0  0.6909E+11  0  0.1972E+11  0  0.5762E+12  0  0.1691E+12  0  0.7823E+12
   (  1, 20,  6)  (  4, 13, 12)  (  2, 12, 12)  (  1, 17, 20)  (  2,  3, 19)
  1 -0.2992E+07  0 -0.7400E+06  0 -0.1665E+07  0 -0.2177E+07  0 -0.1893E+07
   (  2,  3, 20)  (  1, 20, 20)  (  4, 12, 13)  (  2, 11, 16)  (  4, 20, 11)
  0 -0.1147E+07  0 -0.6290E+06  0  0.1389E+06  0 -0.6189E+06  0 -0.5141E+06
   (  4, 11, 16)  (  1,  8, 20)  (  1, 20, 20)  (  5,  3, 20)  (  2, 19,  6)
  0 -0.2923E+06  0 -0.2485E+06  0 -0.1164E+06  0 -0.3644E+05  0 -0.8632E+05
   (  4, 11, 11)  (  2, 20, 16)  (  4, 13, 13)  (  1, 20, 20)  (  4, 13, 13)
  0 -0.7102E+05  0 -0.3755E+05  0 -0.2686E+05  0   3349.      0 -0.2111E+05
   (  2,  8, 19)  (  4, 13, 13)  (  3,  4, 19)  (  1, 20, 20)  (  2, 14, 14)
  0  -9900.      0  -5761.      0  -4405.      0  -2211.      0  -1294.    
   (  2, 14, 14)  (  3,  3, 20)  (  4,  3, 20)  (  1, 19, 15)  (  2,  7, 15)
  0  -1274.      0  -764.1      0  -526.5      0  -664.7      0  -116.3    
   (  2, 13, 13)  (  2, 13, 13)  (  2, 13, 13)  (  2, 13, 13)  (  1, 20, 20)
  1  0.1432E+07  0  0.2322E+07  0  0.4961E+08  0  0.1311E+09  0  0.9358E+08
   (  5, 13, 13)  (  1, 20, 20)  (  2, 20,  9)  (  2, 19, 19)  (  2, 20,  4)
  0  0.1536E+08  0  0.6565E+08  0  0.6997E+08  0  0.1695E+09  0  0.7297E+08
   (  5, 13, 13)  (  2, 14, 14)  (  5, 13, 13)  (  2, 13, 13)  (  3, 13, 20)
  0  0.1769E+08  0  0.2910E+09  0  0.1986E+09  0  0.1324E+09  0  0.4290E+09
   (  5, 20,  7)  (  2, 13, 13)  (  2, 13, 13)  (  5,  9, 20)  (  1,  7, 20)
  0  0.1702E+09  0  0.1809E+10  0  0.8453E+10  0  0.4663E+09  0  0.5764E+09
   (  5, 20,  3)  (  2, 19, 19)  (  4, 12, 12)  (  2, 17, 20)  (  3, 20, 20)
  0  0.3067E+11  0  0.2576E+11  0  0.5028E+11  0  0.1396E+11  0  0.8403E+11
   (  4, 12, 12)  (  2, 20, 15)  (  2,  7, 20)  (  4, 12, 13)  (  4, 12, 13)
  0  0.3172E+11  0  0.3541E+12  0  0.3051E+12  0  0.1342E+13  0  0.1437E+13
   (  3, 20, 20)  (  4, 13, 12)  (  1, 20, 13)  (  4, 12, 13)  (  5, 20,  7)
  1  0.2286E+07  0 -0.1130E+07  0  0.1951E+07  0  0.1428E+07  0  0.1583E+07
   (  4,  2, 20)  (  1, 20, 20)  (  1,  4, 20)  (  4, 20,  2)  (  3, 20,  7)
  0  0.1243E+07  0 -0.6547E+06  0  0.2390E+06  0  0.5878E+06  0 -0.2427E+06
   (  3,  4, 20)  (  2,  5, 18)  (  1, 20, 20)  (  3,  3, 20)  (  3, 12, 20)
  0 -0.2493E+06  0 -0.2213E+06  0  0.8547E+05  0 -0.3802E+05  0  0.8476E+05
   (  1,  3, 20)  (  2, 20,  3)  (  4, 12, 13)  (  1, 20, 20)  (  4, 12, 13)
  0  0.5048E+05  0 -0.3506E+05  0 -0.2089E+05  0 -0.1351E+05  0   4319.    
   (  2, 20,  3)  (  1, 20,  4)  (  2, 12, 12)  (  2, 14, 14)  (  1, 20, 20)
  0 -0.1229E+05  0  -9866.      0  -2568.      0  -3479.      0   724.2    
   (  2, 14, 14)  (  2,  2, 20)  (  2, 20,  2)  (  2, 20, 16)  (  1, 20, 20)
  0  -1291.      0  -982.6      0  -1123.      0  -615.0      0  -763.5    
   (  1,  5, 20)  (  4,  4, 19)  (  2, 13, 13)  (  2, 13, 13)  (  2, 13, 13)
  1  0.1371E+07  0  0.2393E+07  0  0.5009E+08  0  0.1316E+09  0  0.1045E+09
   (  3, 20, 20)  (  3, 20, 20)  (  3, 13, 13)  (  3, 13, 13)  (  4, 13, 13)
  0  0.5195E+07  0  0.1145E+09  0  0.2156E+08  0  0.1879E+09  0  0.1767E+09
   (  1, 20, 20)  (  4, 13, 13)  (  2, 19, 20)  (  4, 12, 13)  (  2, 20,  9)
  0  0.2691E+08  0  0.2020E+09  0  0.4143E+09  0  0.9530E+08  0  0.1568E+10
   (  1, 20, 20)  (  2,  8, 18)  (  4, 12, 13)  (  4, 13, 12)  (  4, 13, 12)
  0  0.9751E+09  0  0.1734E+09  0  0.7780E+10  0  0.2723E+11  0  0.4011E+10
   (  4,  8, 20)  (  1, 20, 20)  (  2, 13, 13)  (  2, 13, 13)  (  2, 13, 13)
  0  0.1735E+11  0  0.9845E+10  0  0.8821E+11  0  0.2833E+12  0  0.1213E+12
   (  2, 13, 13)  (  1, 11, 20)  (  2, 13, 13)  (  2, 13, 13)  (  3,  7, 20)
  0  0.2714E+11  0  0.4076E+12  0  0.6429E+12  0  0.2654E+13  0  0.2212E+13
   (  4, 13, 13)  (  4, 13, 13)  (  2, 19, 16)  (  3, 20,  6)  (  2, 12, 14)
  1 -0.2255E+07  0  0.3895E+07  0 -0.3017E+07  0 -0.3441E+07  0 -0.1790E+07
   (  1, 20, 20)  (  2,  3, 20)  (  4,  2, 20)  (  3, 20,  7)  (  4, 13, 13)
  0 -0.1468E+07  0  0.4935E+06  0 -0.1353E+07  0 -0.5782E+06  0 -0.6941E+06
   (  4, 13, 13)  (  1, 20, 20)  (  3,  9, 17)  (  3, 20,  4)  (  3,  5, 20)
  0 -0.5569E+06  0 -0.2682E+06  0  0.7038E+05  0 -0.2010E+06  0 -0.1569E+06
   (  4,  5, 20)  (  3, 19,  6)  (  1, 20, 20)  (  4, 12, 13)  (  3, 16, 10)
  0 -0.7705E+05  0 -0.7481E+05  0 -0.4002E+05  0  0.1656E+05  0 -0.1625E+05
   (  4, 12, 13)  (  2, 20,  2)  (  1, 15, 15)  (  1, 20, 16)  (  2,  7, 20)
  0  0.1386E+05  0  -5556.      0   4907.      0   2709.      0  -3851.    
   (  2, 14, 14)  (  2,  9, 16)  (  2,  8, 20)  (  1, 20, 20)  (  3, 13, 13)
  0  -1351.      0  -1565.      0  -1406.      0  -621.4      0  -235.3    
   (  4, 20,  3)  (  4, 13, 13)  (  4, 13, 13)  (  4, 13, 13)  (  1, 20, 20)
  1  0.1365E+07  0  0.2405E+07  0  0.5059E+08  0  0.1351E+09  0  0.9952E+08
   (  1, 20, 20)  (  3, 20, 20)  (  3, 13, 13)  (  3, 13, 13)  (  3, 13, 13)
  0  0.1251E+08  0  0.6003E+08  0  0.5355E+08  0  0.1139E+09  0  0.1912E+09
   (  4, 13, 13)  (  3, 20, 13)  (  4, 13, 13)  (  2,  5, 20)  (  4, 13, 12)
  0  0.1985E+08  0  0.4224E+09  0  0.2408E+09  0  0.2927E+09  0  0.1896E+09
   (  1, 14, 20)  (  4, 12, 13)  (  4, 13, 12)  (  3, 14, 12)  (  1, 20, 20)
  0  0.6275E+09  0  0.2376E+10  0  0.1107E+11  0  0.8070E+09  0  0.9406E+09
   (  4, 12, 13)  (  2, 20,  3)  (  2, 14, 14)  (  1, 20, 20)  (  2, 19, 20)
  0  0.1668E+11  0  0.5150E+11  0  0.2528E+11  0  0.4204E+11  0  0.9881E+11
   (  2, 13, 13)  (  2, 13, 13)  (  1, 20, 16)  (  2, 13, 13)  (  2, 13, 13)
  0  0.3801E+11  0  0.4448E+12  0  0.6552E+11  0  0.9394E+12  0  0.4042E+13
   (  4, 13, 13)  (  2, 13, 13)  (  4, 20,  2)  (  4, 20,  2)  (  2, 14, 11)
  1  0.2103E+07  0 -0.2394E+07  0 -0.6058E+07  0 -0.4153E+07  0 -0.4441E+07
   (  1, 11, 20)  (  1, 20,  7)  (  2, 14, 11)  (  3,  7, 20)  (  3, 20,  6)
  0 -0.3500E+07  0 -0.1810E+07  0 -0.7125E+06  0 -0.1688E+07  0 -0.8031E+06
   (  2, 11, 14)  (  3, 20,  3)  (  1, 20, 20)  (  3,  3, 20)  (  2, 16, 11)
  0 -0.4998E+06  0 -0.5520E+06  0 -0.3064E+06  0 -0.7116E+05  0 -0.2195E+06
   (  4, 20,  2)  (  2,  5, 18)  (  4, 13, 12)  (  1, 20, 20)  (  2, 20,  5)
  0 -0.9326E+05  0 -0.7064E+05  0 -0.4470E+05  0   6462.      0 -0.2189E+05
   (  4, 12, 13)  (  4, 11, 15)  (  2, 17, 19)  (  1, 20, 20)  (  2,  8, 20)
  0 -0.1358E+05  0   9058.      0   2835.      0  -1652.      0  -2303.    
   (  2, 12, 17)  (  3, 20,  2)  (  2,  7, 20)  (  1, 20, 20)  (  3, 13, 13)
  0   1237.      0   1900.      0   1718.      0   346.9      0  -211.5    
   (  2,  8, 20)  (  2, 13, 13)  (  2, 13, 13)  (  2, 13, 13)  (  1, 20, 20)
  1  0.1368E+07  0  0.2547E+07  0  0.4845E+08  0  0.1236E+09  0  0.9258E+08
   (  1, 20, 20)  (  3, 20, 20)  (  3, 13, 13)  (  3, 13, 13)  (  3, 13, 13)
  0  0.1447E+08  0  0.8435E+08  0  0.7011E+08  0  0.5776E+08  0  0.5738E+08
   (  4, 13, 13)  (  1, 14, 14)  (  4, 12, 13)  (  2, 19, 19)  (  2, 20,  9)
  0  0.4132E+08  0  0.5038E+08  0  0.1004E+09  0  0.2201E+09  0  0.5616E+08
   (  4, 13, 12)  (  1, 20, 11)  (  4, 12, 13)  (  4, 13, 12)  (  1, 20, 10)
  0  0.4057E+08  0  0.4849E+08  0  0.5237E+09  0  0.1908E+10  0  0.4796E+09
   (  4,  9, 20)  (  3, 20, 20)  (  2, 14, 14)  (  2, 13, 13)  (  1, 20, 20)
  0  0.2830E+10  0  0.1268E+10  0  0.1170E+11  0  0.7025E+10  0  0.1055E+11
   (  2, 13, 13)  (  4, 13, 13)  (  2, 13, 13)  (  3, 20,  7)  (  1, 20,  7)
  0  0.4275E+11  0  0.8430E+11  0  0.8974E+11  0  0.2765E+12  0  0.9114E+11
   (  4, 20,  2)  (  2, 11, 14)  (  4, 12, 12)  (  2, 12, 14)  (  1, 19, 20)
  1 -0.8040E+06  0 -0.2586E+07  0 -0.3386E+07  0 -0.5035E+07  0 -0.2455E+07
   (  1, 20, 20)  (  3, 20,  7)  (  4, 18,  7)  (  3,  5, 20)  (  1, 20,  4)
  0 -0.1357E+07  0 -0.2288E+06  0 -0.5755E+06  0 -0.6284E+06  0 -0.1862E+06
   (  2, 13, 17)  (  1, 20, 20)  (  4,  6, 20)  (  2,  7,  3)  (  2, 10, 20)
  0 -0.1326E+06  0 -0.1918E+06  0  0.3050E+05  0 -0.7272E+05  0 -0.4447E+05
   (  2, 13, 13)  (  2, 20,  4)  (  1, 20, 20)  (  1, 12, 18)  (  2, 14, 14)
  0 -0.4144E+05  0 -0.1809E+05  0   6216.      0 -0.1250E+05  0  -7879.    
   (  1,  7, 20)  (  2, 20,  3)  (  1, 20, 20)  (  1, 19, 13)  (  4, 12, 12)
  0  -5351.      0   2104.      0  -1922.      0  -464.5      0   1256.    
   (  2, 19, 19)  (  2, 17,  8)  (  2, 20,  4)  (  1, 20, 20)  (  2, 19, 17)
  0   751.9      0   360.7      0   206.6      0  -135.7      0  -128.8    
   (  4,  4, 19)  (  4, 20,  5)  (  2,  4, 20)  (  1, 20, 20)  (  2,  6, 19)
  1  0.1557E+07  0  0.2278E+07  0  0.4802E+08  0  0.1229E+09  0  0.9074E+08
   (  5, 13, 13)  (  1, 20, 20)  (  2,  9, 20)  (  2, 19, 19)  (  2,  4, 20)
  0  0.4915E+07  0  0.8015E+08  0  0.2466E+08  0  0.1129E+09  0  0.4348E+08
   (  1, 20, 20)  (  5, 13, 13)  (  2, 14, 14)  (  2, 13, 13)  (  3, 20, 13)
  0  0.1739E+08  0  0.1083E+09  0  0.9836E+08  0  0.2118E+08  0  0.1115E+09
   (  5, 12, 14)  (  2, 13, 13)  (  2, 13, 13)  (  5,  6, 20)  (  5,  2, 20)
  0  0.6707E+08  0  0.2206E+09  0  0.1070E+10  0  0.2262E+10  0  0.1120E+10
   (  1, 18, 20)  (  4, 13, 13)  (  4, 13, 13)  (  2, 20, 16)  (  1, 20, 20)
  0  0.5354E+09  0  0.4473E+10  0  0.5339E+10  0  0.1703E+11  0  0.1774E+10
   (  4, 12, 12)  (  4, 12, 12)  (  2,  7, 20)  (  1, 19,  2)  (  4, 13, 12)
  0  0.3072E+11  0  0.4271E+10  0  0.2624E+12  0  0.2991E+12  0  0.3056E+12
   (  2,  9, 15)  (  4, 12, 13)  (  2, 12, 12)  (  2, 13, 13)  (  2, 13, 13)
  1  0.1661E+07  0  0.9013E+06  0 -0.3193E+07  0 -0.4164E+07  0 -0.2453E+07
   (  3, 20,  6)  (  1, 20, 20)  (  2, 20, 19)  (  4, 20, 11)  (  4, 12, 13)
  0 -0.1897E+07  0 -0.7835E+06  0  0.1598E+06  0 -0.8502E+06  0 -0.4435E+06
   (  2,  5,  5)  (  4,  9, 20)  (  1, 20, 20)  (  2,  7, 20)  (  2, 20,  7)
  0 -0.2309E+06  0 -0.1323E+06  0 -0.1036E+06  0 -0.7270E+05  0 -0.8586E+05
   (  2, 10, 17)  (  1,  8, 14)  (  2, 10, 10)  (  1, 20, 19)  (  3, 20,  3)
  0 -0.7702E+05  0 -0.5010E+05  0 -0.2081E+05  0  -7301.      0 -0.1153E+05
   (  4, 13, 13)  (  3,  4, 18)  (  2, 14, 14)  (  1, 20, 20)  (  2, 14, 14)
  0  -7567.      0  -3645.      0  -2105.      0  -754.5      0  -1524.    
   (  2, 20,  2)  (  4,  3, 20)  (  2, 20,  8)  (  1, 20, 20)  (  4, 11, 16)
  0  -954.7      0  -513.7      0  -459.1      0  -121.2      0  -207.3    
   (  4,  5, 20)  (  4,  5, 20)  (  4, 20,  5)  (  1, 20, 20)  (  2, 10, 20)
  1  0.1361E+07  0  0.2639E+07  0  0.4838E+08  0  0.1228E+09  0  0.9151E+08
   (  3, 20, 20)  (  3, 20, 20)  (  3, 13, 13)  (  3, 13, 13)  (  3, 13, 13)
  0  0.7847E+07  0  0.8596E+08  0  0.1376E+08  0  0.1041E+09  0  0.4003E+08
   (  4, 13, 13)  (  1, 14, 14)  (  4, 13, 12)  (  4, 13, 12)  (  2, 20,  8)
  0  0.3866E+08  0  0.7093E+08  0  0.9049E+08  0  0.3999E+08  0  0.1194E+09
   (  1, 20, 10)  (  4, 12, 13)  (  4, 13, 12)  (  2, 20, 15)  (  4, 12, 13)
  0  0.5609E+08  0  0.1104E+08  0  0.3578E+09  0  0.9549E+09  0  0.8926E+08
   (  4, 20,  8)  (  1, 12, 20)  (  2, 14, 14)  (  2, 13, 13)  (  4, 17,  9)
  0  0.3261E+09  0  0.1084E+10  0  0.1225E+10  0  0.6173E+10  0  0.5384E+10
   (  1, 20, 20)  (  2, 13, 13)  (  3,  9, 18)  (  2, 13, 13)  (  1, 20,  8)
  0  0.5102E+09  0  0.3263E+10  0  0.5888E+11  0  0.1803E+12  0  0.1383E+12
   (  4, 20,  2)  (  3, 20, 20)  (  2, 11, 14)  (  4, 12, 12)  (  1, 12, 20)
  1 -0.5059E+06  0 -0.7590E+06  0 -0.2466E+07  0 -0.1589E+07  0 -0.1795E+07
   (  1, 20, 20)  (  4, 18,  7)  (  2,  5,  5)  (  3, 20,  7)  (  4, 20,  4)
  0 -0.1334E+07  0  0.1161E+06  0 -0.6309E+06  0 -0.5245E+06  0 -0.2360E+06
   (  2, 20, 16)  (  1, 20, 20)  (  2,  4, 18)  (  2, 18,  4)  (  2,  9, 19)
  0 -0.1890E+06  0 -0.1584E+06  0 -0.2687E+05  0 -0.9264E+05  0 -0.5131E+05
   (  1,  5, 20)  (  2, 20,  4)  (  1, 20, 20)  (  2, 14, 14)  (  4, 20, 10)
  0 -0.2458E+05  0 -0.1378E+05  0  -6502.      0  -8385.      0  -4789.    
   (  2, 13, 13)  (  2, 20,  3)  (  1, 20, 20)  (  2, 10, 10)  (  4, 10, 20)
  0  -2350.      0  -1121.      0  -1471.      0   401.4      0   877.5    
   (  2, 19, 19)  (  5, 20,  2)  (  2,  4, 20)  (  1, 20, 20)  (  3,  8, 20)
  0   923.9      0   438.5      0   201.5      0  -122.3      0  -126.6    
   (  4,  4, 20)  (  2, 11, 15)  (  2, 20, 10)  (  2, 20,  2)  (  1, 20, 20)
  1  0.1366E+07  0  0.2430E+07  0  0.4855E+08  0  0.1246E+09  0  0.9489E+08
   (  3, 20, 20)  (  3, 20, 20)  (  3, 13, 13)  (  3, 13, 13)  (  3, 13, 13)
  0  0.4829E+08  0  0.5562E+08  0  0.8750E+08  0  0.5399E+08  0  0.9955E+08
   (  4, 13, 13)  (  1, 16, 16)  (  2, 19, 19)  (  4, 12, 13)  (  2,  9, 20)
  0  0.8861E+08  0  0.1038E+08  0  0.1521E+09  0  0.4817E+09  0  0.7942E+08
   (  2, 19,  9)  (  4, 12, 13)  (  4, 13, 12)  (  4, 12, 13)  (  4, 15, 10)
  0  0.2393E+09  0  0.1362E+10  0  0.1178E+10  0  0.6581E+10  0  0.3624E+09
   (  1, 20, 20)  (  2, 14, 14)  (  4,  5, 20)  (  2, 13, 13)  (  4, 16,  9)
  0  0.1242E+11  0  0.2082E+10  0  0.3355E+11  0  0.4157E+11  0  0.2699E+10
   (  2, 13, 13)  (  2, 20, 19)  (  2, 13, 13)  (  2, 13, 13)  (  4, 13, 13)
  0  0.1046E+12  0  0.4344E+12  0  0.1848E+12  0  0.3739E+12  0  0.7759E+12
   (  1,  5, 20)  (  2, 14, 11)  (  4, 12, 12)  (  1, 20, 20)  (  2, 12, 14)
  1  0.1531E+07  0 -0.2065E+07  0 -0.2834E+07  0 -0.4664E+07  0 -0.2588E+07
   (  1, 20,  4)  (  1,  8, 20)  (  3,  7, 20)  (  4, 11, 11)  (  2, 16, 20)
  0 -0.1799E+07  0 -0.3997E+06  0 -0.7853E+06  0 -0.8012E+06  0 -0.4993E+06
   (  4,  5, 20)  (  4, 20,  5)  (  1, 20, 20)  (  2, 12, 12)  (  1, 19,  8)
  0 -0.4399E+06  0 -0.2573E+06  0  0.5542E+05  0 -0.1810E+06  0 -0.1099E+06
   (  2, 18,  4)  (  4, 11, 16)  (  1, 20, 20)  (  1, 20,  3)  (  2,  6, 19)
  0 -0.6783E+05  0 -0.5776E+05  0 -0.1866E+05  0 -0.2004E+05  0 -0.2025E+05
   (  4, 12, 13)  (  2,  8, 20)  (  1, 20, 20)  (  2,  9,  5)  (  2, 20,  5)
  0  -9893.      0   3275.      0  -2747.      0  -1073.      0  -2151.    
   (  2, 19, 19)  (  2, 20,  7)  (  2, 20, 13)  (  1, 20, 20)  (  3, 13, 13)
  0  -948.0      0   599.6      0  -353.4      0  -417.4      0   89.33    
   (  2, 14, 12)  (  2,  3, 19)  (  4,  9, 20)  (  4, 17,  2)  (  1, 20, 20)
  1  0.1481E+07  0  0.2294E+07  0  0.4833E+08  0  0.1248E+09  0  0.9259E+08
   (  5, 13, 13)  (  1, 20, 20)  (  2,  9, 20)  (  2, 19, 19)  (  2,  4, 20)
  0  0.6079E+07  0  0.9706E+08  0  0.1661E+08  0  0.1345E+09  0  0.5809E+08
   (  1, 20, 20)  (  2, 12, 12)  (  3, 20, 20)  (  2, 13, 13)  (  2, 13, 13)
  0  0.1031E+08  0  0.1459E+09  0  0.1825E+09  0  0.1571E+09  0  0.1831E+09
   (  5, 12, 14)  (  2, 13, 13)  (  2, 13, 13)  (  5,  2, 20)  (  2, 19, 19)
  0  0.4893E+08  0  0.4240E+09  0  0.2699E+10  0  0.3512E+10  0  0.6645E+10
   (  4, 13, 13)  (  5, 20,  2)  (  4, 13, 13)  (  4, 12, 12)  (  4, 12, 12)
  0  0.2163E+10  0  0.1454E+11  0  0.1357E+11  0  0.1517E+11  0  0.7225E+11
   (  2, 16, 20)  (  4, 12, 12)  (  2, 20,  7)  (  4, 12, 13)  (  1, 20, 20)
  0  0.7232E+11  0  0.2054E+12  0  0.3753E+12  0  0.2863E+11  0  0.7122E+12
   (  1, 20,  6)  (  4, 13, 12)  (  2, 12, 12)  (  4, 12, 13)  (  2,  4, 20)
  1 -0.1897E+07  0  0.5833E+06  0  0.1146E+07  0 -0.1099E+07  0  0.8463E+06
   (  2,  3, 20)  (  1, 20, 20)  (  2, 16, 19)  (  2, 10, 19)  (  3,  7, 20)
  0 -0.7701E+06  0  0.4881E+06  0 -0.1207E+06  0  0.2655E+06  0 -0.3115E+06
   (  4, 20, 11)  (  3, 20,  3)  (  1, 20, 20)  (  3, 20,  4)  (  2, 19,  6)
  0  0.1849E+06  0  0.1658E+06  0 -0.1146E+06  0  0.3403E+05  0  0.4888E+05
   (  2, 16, 11)  (  4,  2, 20)  (  2,  2, 20)  (  1, 20, 20)  (  2, 14, 14)
  0 -0.3276E+05  0  0.2203E+05  0 -0.1624E+05  0   5604.      0  -7664.    
   (  2,  8, 19)  (  2, 20,  2)  (  3,  3, 18)  (  1,  9, 20)  (  1, 17, 20)
  0  -9821.      0  -3856.      0  -1930.      0  -2650.      0  -358.2    
   (  2, 14, 14)  (  2,  6,  9)  (  4, 20,  3)  (  2, 20, 16)  (  1, 20, 20)
  0  -990.3      0  -477.4      0  -1036.      0  -459.9      0  -197.5    
   (  2, 13, 13)  (  2, 13, 13)  (  2, 13, 13)  (  2, 13, 13)  (  2, 13, 13)
  1  0.1571E+07  0  0.2279E+07  0  0.4809E+08  0  0.1232E+09  0  0.9313E+08
   (  5, 13, 13)  (  1, 20, 20)  (  2,  9, 20)  (  2, 19, 19)  (  2,  4, 20)
  0  0.1544E+08  0  0.8424E+08  0  0.1020E+09  0  0.2062E+08  0  0.4103E+08
   (  1, 20, 20)  (  2, 12, 12)  (  2, 13, 13)  (  5,  2, 20)  (  3, 20, 13)
  0  0.1173E+09  0  0.1000E+08  0  0.1179E+09  0  0.2925E+09  0  0.8934E+08
   (  2, 13, 13)  (  1, 20, 20)  (  2, 13, 13)  (  2, 19, 19)  (  5,  6, 20)
  0  0.1032E+09  0  0.1067E+09  0  0.7731E+09  0  0.3366E+10  0  0.3215E+10
   (  1, 20, 13)  (  2, 20, 19)  (  2, 20,  2)  (  4, 12, 12)  (  1, 20, 20)
  0  0.2613E+10  0  0.7852E+10  0  0.6430E+10  0  0.2041E+11  0  0.3042E+11
   (  4, 12, 12)  (  2, 20,  8)  (  4, 12, 13)  (  2,  9, 15)  (  2, 20, 10)
  0  0.5195E+10  0  0.1869E+12  0  0.2777E+12  0  0.2547E+12  0  0.5538E+12
   (  1, 20, 17)  (  2,  2, 20)  (  2, 18,  3)  (  2, 13, 13)  (  1, 17, 20)
  1 -0.1021E+07  0 -0.1581E+07  0 -0.3345E+07  0 -0.1655E+07  0 -0.2446E+07
   (  1, 20, 20)  (  2,  9, 20)  (  5, 20,  2)  (  1, 20,  7)  (  2,  7,  7)
  0 -0.1488E+07  0 -0.2339E+06  0 -0.1061E+07  0 -0.6476E+06  0 -0.3135E+06
   (  2, 20,  3)  (  1, 20, 20)  (  1,  2, 20)  (  2, 20,  7)  (  2, 16, 20)
  0 -0.2520E+06  0 -0.2198E+06  0  0.3235E+05  0 -0.1381E+06  0 -0.7371E+05
   (  4, 11, 12)  (  2, 15, 12)  (  1, 20, 20)  (  1,  5, 20)  (  4, 12, 12)
  0 -0.4809E+05  0 -0.2939E+05  0   6949.      0 -0.1703E+05  0 -0.1317E+05
   (  3,  4, 20)  (  2, 18, 18)  (  1, 20, 20)  (  1, 19,  6)  (  2, 12, 12)
  0  -4299.      0  -3766.      0  -3174.      0  -580.2      0  -2860.    
   (  4,  3, 20)  (  3,  9, 20)  (  4, 20,  3)  (  1, 20, 20)  (  4,  4, 20)
  0  -822.1      0  -370.3      0  -467.1      0  -124.4      0  -152.8    
   (  4, 17,  9)  (  4,  5, 12)  (  2, 13, 13)  (  1, 20, 20)  (  2,  5, 20)
  1  0.1720E+07  0  0.2253E+07  0  0.4803E+08  0  0.1226E+09  0  0.9226E+08
   (  5, 13, 13)  (  1, 20, 20)  (  2,  9, 20)  (  2, 19, 19)  (  2,  4, 20)
  0  0.7987E+08  0  0.1822E+08  0  0.8148E+08  0  0.4293E+08  0  0.4452E+08
   (  2, 12, 12)  (  1, 10, 20)  (  2, 13, 13)  (  5, 20,  2)  (  2, 13, 13)
  0  0.9723E+08  0  0.5660E+08  0  0.3967E+08  0  0.1806E+09  0  0.3916E+08
   (  2, 13, 13)  (  1,  6, 20)  (  5, 20,  9)  (  2, 19, 19)  (  2, 19, 20)
  0  0.3600E+08  0  0.3821E+09  0  0.2837E+08  0  0.1212E+10  0  0.1484E+10
   (  5, 20,  6)  (  4, 13, 13)  (  1, 20, 20)  (  4, 12, 12)  (  2, 18,  5)
  0  0.5056E+09  0  0.6145E+09  0  0.9532E+09  0  0.5727E+10  0  0.8975E+10
   (  4, 12, 13)  (  1, 20, 20)  (  2,  8, 20)  (  4, 12, 13)  (  4, 13, 12)
  0  0.3265E+10  0  0.7160E+11  0  0.3116E+11  0  0.1041E+12  0  0.2047E+12
   (  1, 20, 20)  (  4, 12, 13)  (  2, 20, 19)  (  4, 10, 20)  (  2, 13, 13)
  1 -0.5788E+06  0 -0.1061E+07  0 -0.2571E+07  0 -0.1546E+07  0 -0.1034E+07
   (  1, 20, 20)  (  5, 20,  2)  (  4, 12, 13)  (  2, 19, 20)  (  2,  4,  7)
  0 -0.1102E+07  0 -0.3434E+06  0 -0.3925E+06  0 -0.5080E+06  0 -0.2056E+06
   (  2, 20,  9)  (  1,  8, 20)  (  2,  7, 20)  (  5, 20,  4)  (  2,  7, 20)
  0 -0.1415E+06  0 -0.1594E+06  0 -0.3513E+05  0 -0.8079E+05  0 -0.4006E+05
   (  4, 11, 11)  (  2, 15, 12)  (  1, 20, 20)  (  4, 11, 12)  (  4, 12, 12)
  0 -0.3949E+05  0  0.1120E+05  0   4879.      0  -7759.      0  -6032.    
   (  3,  3, 20)  (  2, 20,  2)  (  1, 20, 20)  (  1,  7, 19)  (  2, 12, 12)
  0  -2202.      0  -1516.      0  -881.0      0   423.9      0  -880.6    
   (  2, 12, 12)  (  2, 14, 14)  (  2, 20,  9)  (  1, 20, 20)  (  4,  4, 20)
  0  -980.5      0  -475.2      0  -188.3      0  -123.2      0  -215.9    
   (  3, 20,  3)  (  2,  5, 20)  (  2, 13, 13)  (  1, 20, 20)  (  2, 13, 13)
  1  0.1666E+07  0  0.2259E+07  0  0.4792E+08  0  0.1225E+09  0  0.9204E+08
   (  5, 13, 13)  (  1, 20, 20)  (  2, 20,  9)  (  2, 19, 19)  (  2,  4, 20)
  0  0.6435E+07  0  0.8948E+08  0  0.1377E+08  0  0.1170E+09  0  0.9490E+08
   (  1, 20, 20)  (  2, 12, 12)  (  3, 20, 20)  (  2, 13, 13)  (  2, 13, 13)
  0  0.7302E+07  0  0.6071E+08  0  0.7899E+08  0  0.1668E+08  0  0.2019E+09
   (  1, 20, 20)  (  2,  4, 20)  (  2, 20,  6)  (  4, 13, 13)  (  2, 19, 19)
  0  0.4510E+07  0  0.4657E+09  0  0.5950E+09  0  0.3003E+09  0  0.4727E+09
   (  4, 13, 13)  (  4, 13, 13)  (  4, 14, 12)  (  4, 12, 12)  (  1, 20, 12)
  0  0.5005E+09  0  0.2821E+10  0  0.8966E+10  0  0.1143E+10  0  0.6612E+10
   (  4, 12, 12)  (  4, 12, 12)  (  4, 13, 12)  (  4, 12, 13)  (  2,  9, 20)
  0  0.2143E+10  0  0.1024E+11  0  0.1029E+12  0  0.3018E+10  0  0.3023E+12
   (  3, 20, 20)  (  1, 10, 20)  (  2, 12, 12)  (  4, 13, 12)  (  2, 13, 13)
  1 -0.3133E+07  0 -0.1561E+07  0 -0.5779E+07  0 -0.2771E+07  0 -0.2802E+07
   (  1, 19,  2)  (  2, 20,  5)  (  2, 13, 17)  (  5,  6, 20)  (  2,  5, 19)
  0 -0.1517E+07  0 -0.4808E+06  0  0.1981E+06  0 -0.4061E+06  0 -0.2725E+06
   (  2,  5,  5)  (  1, 20,  5)  (  1, 10, 20)  (  2, 20,  7)  (  2,  6, 20)
  0 -0.1203E+06  0 -0.1279E+06  0 -0.7152E+05  0  0.1810E+05  0 -0.4449E+05
   (  3, 20,  2)  (  2, 12, 15)  (  1,  8, 18)  (  1, 20, 20)  (  4, 13, 13)
  0 -0.3442E+05  0  -8261.      0  -9410.      0   4309.      0  -3982.    
   (  2, 18, 18)  (  4, 13, 13)  (  2, 14, 14)  (  1, 20,  5)  (  1, 20, 20)
  0  -6218.      0  -2572.      0   1233.      0  -1710.      0  -211.4    
   (  3,  2, 20)  (  2,  8, 17)  (  2,  5, 20)  (  2, 17, 20)  (  1, 20, 20)
  0  -636.7      0  -219.9      0  -331.1      0  -468.3      0  -114.0    
   (  2, 15, 11)  (  4, 20,  5)  (  2, 20,  5)  (  2, 13, 13)  (  2, 13, 13)
  1  0.1524E+07  0  0.2288E+07  0  0.4825E+08  0  0.1239E+09  0  0.9410E+08
   (  5, 13, 13)  (  1, 20, 20)  (  2, 20,  9)  (  2, 19, 19)  (  2, 20,  4)
  0  0.4276E+08  0  0.5495E+08  0  0.1460E+08  0  0.1276E+09  0  0.1230E+09
   (  1,  8, 20)  (  5, 13, 13)  (  3, 20, 20)  (  2, 13, 13)  (  2, 13, 13)
  0  0.1320E+09  0  0.1606E+08  0  0.1644E+09  0  0.8638E+08  0  0.2064E+09
   (  2, 13, 13)  (  1, 20, 20)  (  4, 13, 13)  (  2, 19, 19)  (  4, 13, 13)
  0  0.4974E+09  0  0.9010E+08  0  0.1052E+10  0  0.5416E+10  0  0.5605E+09
   (  5,  7, 20)  (  1, 20, 20)  (  2, 20,  2)  (  4, 12, 12)  (  3, 20, 20)
  0  0.7004E+10  0  0.3089E+10  0  0.4710E+11  0  0.3832E+11  0  0.4065E+11
   (  4, 12, 12)  (  4, 12, 12)  (  4, 12, 13)  (  2, 14, 14)  (  1, 20, 20)
  0  0.8014E+11  0  0.2015E+12  0  0.1833E+12  0  0.8322E+12  0  0.8389E+12
   (  4, 12, 13)  (  2,  9, 19)  (  2, 20,  6)  (  2, 13, 13)  (  2, 13, 13)
  1  0.1095E+07  0 -0.2525E+07  0 -0.2385E+07  0 -0.2063E+07  0 -0.2377E+07
   (  1, 20, 20)  (  2, 13, 13)  (  2,  9, 20)  (  4, 20, 11)  (  2, 13, 13)
  0 -0.9715E+06  0 -0.3378E+06  0 -0.1042E+07  0 -0.1014E+07  0 -0.2971E+06
   (  2,  5,  5)  (  1, 20, 20)  (  1, 20,  2)  (  1,  2, 20)  (  4, 12, 12)
  0 -0.4348E+06  0 -0.2851E+06  0 -0.5750E+05  0 -0.1870E+06  0 -0.1408E+06
   (  2, 20, 16)  (  2, 15, 20)  (  1, 20, 20)  (  2, 10, 10)  (  3,  3, 19)
  0 -0.9708E+05  0 -0.7818E+05  0   6473.      0 -0.2594E+05  0 -0.2191E+05
   (  4, 13, 13)  (  2, 18, 18)  (  1, 20, 20)  (  3,  2, 20)  (  2, 13, 13)
  0 -0.1378E+05  0  -5660.      0  -2667.      0  -1073.      0  -3888.    
   (  2, 13, 13)  (  2, 13, 13)  (  2, 20,  7)  (  2, 20,  7)  (  2, 17, 19)
  0  -1015.      0  -894.4      0  -499.7      0  -255.7      0  -290.5    
   (  4,  5, 14)  (  1,  4, 20)  (  4, 20,  5)  (  1, 20, 20)  (  2,  8, 19)
  1  0.1373E+07  0  0.2791E+07  0  0.4900E+08  0  0.1240E+09  0  0.9225E+08
   (  3, 20, 20)  (  3, 20, 20)  (  3, 13, 13)  (  3, 13, 13)  (  3, 13, 13)
  0  0.6145E+08  0  0.3609E+08  0  0.4404E+08  0  0.8208E+08  0  0.9423E+08
   (  1, 15, 15)  (  4, 13, 13)  (  2, 19, 19)  (  4, 12, 13)  (  4, 13, 12)
  0  0.6404E+08  0  0.7704E+07  0  0.5706E+08  0  0.1471E+09  0  0.1355E+08
   (  4, 12, 13)  (  4, 12, 13)  (  4, 13, 12)  (  4, 13, 12)  (  4, 12, 13)
  0  0.4835E+08  0  0.7332E+07  0  0.2308E+09  0  0.5497E+09  0  0.1664E+09
   (  4,  8, 20)  (  4,  2, 19)  (  2, 14, 14)  (  2, 13, 13)  (  4, 16,  9)
  0  0.6668E+09  0  0.8513E+09  0  0.2266E+10  0  0.2262E+10  0  0.1954E+09
   (  2, 13, 13)  (  2, 13, 13)  (  2, 13, 13)  (  2, 20, 13)  (  4, 20,  2)
  0  0.5257E+10  0  0.2520E+11  0  0.5178E+11  0  0.1106E+11  0  0.1426E+11
   (  3,  7, 20)  (  2, 14, 11)  (  4,  5, 20)  (  1, 20, 20)  (  2, 12, 14)
  1  0.3035E+06  0 -0.1581E+07  0 -0.4853E+07  0 -0.1944E+07  0 -0.1343E+07
   (  1, 20, 20)  (  1, 20,  8)  (  4, 18,  7)  (  2, 12, 20)  (  2, 20, 18)
  0 -0.8360E+06  0 -0.2139E+06  0 -0.3928E+06  0 -0.2126E+06  0 -0.2011E+06
   (  2,  5, 20)  (  1, 17, 20)  (  2, 20, 10)  (  2, 13, 13)  (  2, 13, 13)
  0 -0.9038E+05  0 -0.3383E+05  0 -0.4343E+05  0 -0.3478E+05  0 -0.2095E+05
   (  2,  5, 20)  (  1, 15, 20)  (  2, 13, 13)  (  5, 20,  2)  (  4, 13, 12)
  0 -0.2489E+05  0  -7044.      0   8447.      0  -6087.      0   3067.    
   (  4, 13, 12)  (  1, 20, 20)  (  1,  6, 20)  (  4, 12, 12)  (  2, 20,  2)
  0   1730.      0  -399.7      0  -1110.      0   704.2      0  -347.8    
   (  2, 13, 13)  (  1, 20, 20)  (  2,  3, 20)  (  2,  8, 20)  (  4, 20,  7)
  0  -273.7      0   177.7      0   141.2      0  -130.0      0  -122.2    
   (  4,  9, 20)  (  2, 19,  3)  (  1, 20, 20)  (  2, 19,  6)  (  4,  2, 17)
  1  0.1792E+07  0  0.2239E+07  0  0.4802E+08  0  0.1226E+09  0  0.9229E+08
   (  5, 13, 13)  (  1, 20, 20)  (  2,  9, 20)  (  2, 19, 19)  (  2,  4, 20)
  0  0.5088E+08  0  0.4724E+08  0  0.1212E+09  0  0.1055E+08  0  0.9501E+08
   (  1,  8, 20)  (  5, 13, 13)  (  2, 13, 13)  (  2, 13, 13)  (  2, 13, 13)
  0  0.9383E+08  0  0.7762E+07  0  0.5980E+08  0  0.1467E+09  0  0.6307E+08
   (  2, 13, 13)  (  1, 20, 20)  (  2, 19,  8)  (  2, 19, 19)  (  4, 13, 13)
  0  0.2048E+09  0  0.4928E+08  0  0.2655E+09  0  0.7063E+09  0  0.1316E+10
   (  2, 19, 19)  (  4, 13, 13)  (  5, 17,  8)  (  4, 12, 12)  (  4, 12, 12)
  0  0.1597E+09  0  0.5378E+10  0  0.1832E+10  0  0.7728E+10  0  0.1802E+11
   (  4, 12, 12)  (  4, 13, 12)  (  3, 20, 20)  (  2,  9, 19)  (  4, 12, 13)
  0  0.1232E+11  0  0.2727E+11  0  0.1684E+12  0  0.1664E+11  0  0.5274E+11
   (  1, 12, 20)  (  1, 17,  3)  (  2, 13, 13)  (  4, 15, 11)  (  1, 20, 20)
  1 -0.6831E+06  0 -0.3989E+07  0 -0.2668E+07  0 -0.2225E+07  0 -0.1805E+07
   (  1, 20, 20)  (  2, 13, 13)  (  2,  6, 20)  (  4, 11, 20)  (  2,  5,  5)
  0 -0.3814E+06  0 -0.4795E+06  0 -0.5526E+06  0 -0.3854E+06  0 -0.1245E+06
   (  4,  2, 16)  (  1, 20, 16)  (  4, 20,  9)  (  4, 12, 12)  (  2,  7, 18)
  0 -0.1543E+06  0  0.2823E+05  0 -0.9449E+05  0 -0.5576E+05  0 -0.4672E+05
   (  2, 20, 15)  (  1, 16, 20)  (  2, 10, 10)  (  3,  4, 20)  (  4,  6, 20)
  0 -0.2470E+05  0  -4373.      0 -0.1045E+05  0  -7067.      0  -6872.    
   (  2, 18, 18)  (  1, 20, 20)  (  3,  6, 20)  (  4, 20,  3)  (  2, 13, 13)
  0  -4289.      0   455.8      0  -1424.      0  -1040.      0  -797.2    
   (  2, 13, 13)  (  1, 20, 20)  (  2, 13, 13)  (  2,  3, 18)  (  2, 20, 10)
  0  -302.0      0  -78.61      0   160.3      0   99.80      0  -78.83    
   (  2, 10, 20)  (  1, 20, 20)  (  1,  6, 20)  (  4,  9, 20)  (  4,  6, 20)
  1  0.1368E+07  0  0.2594E+07  0  0.4852E+08  0  0.1234E+09  0  0.9235E+08
   (  3, 20, 20)  (  3, 20, 20)  (  3, 13, 13)  (  3, 13, 13)  (  3, 13, 13)
  0  0.1885E+08  0  0.7948E+08  0  0.9744E+08  0  0.3038E+08  0  0.1016E+09
   (  4, 13, 13)  (  1, 15, 15)  (  4, 13, 12)  (  2, 19, 19)  (  4, 12, 13)
  0  0.1798E+08  0  0.8983E+08  0  0.1826E+09  0  0.5708E+08  0  0.1705E+08
   (  1, 20, 20)  (  4, 13, 12)  (  4, 12, 13)  (  4, 20,  8)  (  3, 20, 20)
  0  0.2142E+08  0  0.3704E+09  0  0.1782E+09  0  0.1213E+10  0  0.1724E+10
   (  4, 15, 10)  (  2, 14, 14)  (  3, 20,  8)  (  2, 13, 13)  (  2, 13, 13)
  0  0.4956E+09  0  0.4046E+09  0  0.1032E+11  0  0.8642E+10  0  0.2462E+11
   (  1, 20, 20)  (  4, 13, 13)  (  2, 13, 13)  (  1,  6, 20)  (  1, 19, 19)
  0  0.4499E+11  0  0.7502E+11  0  0.8651E+11  0  0.1566E+12  0  0.1332E+12
   (  4, 13, 13)  (  2, 12, 14)  (  4, 12, 12)  (  3, 20,  3)  (  4, 20,  5)
  1  0.7825E+06  0 -0.1247E+07  0 -0.3494E+07  0 -0.2184E+07  0 -0.2512E+07
   (  1, 20, 20)  (  4, 20,  4)  (  3, 20,  7)  (  4,  4, 20)  (  2, 19, 17)
  0 -0.1570E+07  0 -0.3076E+06  0 -0.4089E+06  0 -0.5910E+06  0 -0.4266E+06
   (  3,  6, 20)  (  1, 20, 20)  (  4,  4,  4)  (  2, 13, 20)  (  2, 13, 13)
  0 -0.2630E+06  0 -0.1398E+06  0 -0.4881E+05  0 -0.7387E+05  0 -0.4794E+05
   (  2, 13, 13)  (  1,  2, 20)  (  2, 13, 13)  (  2, 13, 13)  (  4, 11, 15)
  0 -0.4238E+05  0 -0.2280E+05  0  -6277.      0 -0.1046E+05  0  -8995.    
   (  2, 20,  7)  (  2, 16, 20)  (  1, 20, 20)  (  4, 12, 13)  (  4, 12, 12)
  0  -3389.      0  -2255.      0   1307.      0  -1285.      0   1098.    
   (  4, 12, 12)  (  3, 10, 20)  (  1, 20,  5)  (  1, 20, 19)  (  4,  4, 20)
  0   691.6      0   426.3      0  -231.8      0   87.75      0  -239.7    
   (  4, 20,  5)  (  2, 20, 10)  (  2, 20,  2)  (  1, 20, 20)  (  2,  7, 14)
  1  0.1674E+07  0  0.2253E+07  0  0.4793E+08  0  0.1225E+09  0  0.9224E+08
   (  5, 13, 13)  (  1, 20, 20)  (  2, 20,  9)  (  2, 19, 19)  (  2,  4, 20)
  0  0.4812E+08  0  0.5007E+08  0  0.5093E+08  0  0.7720E+08  0  0.1020E+09
   (  5, 13, 13)  (  1,  8, 20)  (  5,  2, 20)  (  2, 13, 13)  (  2, 13, 13)
  0  0.9343E+08  0  0.4415E+08  0  0.8607E+07  0  0.1852E+09  0  0.2101E+08
   (  3,  4, 20)  (  2, 20,  8)  (  4, 20, 14)  (  4, 13, 13)  (  2, 19, 19)
  0  0.2211E+09  0  0.2410E+09  0  0.9169E+08  0  0.1519E+10  0  0.5354E+09
   (  5,  7, 20)  (  5, 18,  6)  (  1, 14, 20)  (  4, 12, 12)  (  4, 12, 12)
  0  0.2166E+10  0  0.1547E+09  0  0.9518E+10  0  0.7716E+10  0  0.1167E+11
   (  2, 15, 15)  (  1, 20, 20)  (  4, 13, 12)  (  1,  4, 20)  (  2,  9, 19)
  0  0.3650E+10  0  0.5718E+11  0  0.3355E+11  0  0.2216E+12  0  0.1980E+12
   (  1, 20, 20)  (  4, 13, 12)  (  3, 20, 11)  (  2, 13, 13)  (  1, 17, 20)
  1 -0.9053E+06  0 -0.3690E+07  0 -0.3092E+07  0 -0.2707E+07  0 -0.1796E+07
   (  1, 20, 20)  (  2, 20,  6)  (  5, 20,  3)  (  2, 19, 20)  (  5,  7, 19)
  0 -0.1101E+07  0  0.1978E+06  0 -0.8864E+06  0 -0.4622E+06  0 -0.2071E+06
   (  1,  5, 15)  (  1, 20, 20)  (  1, 20,  2)  (  2,  3, 20)  (  2, 20,  6)
  0 -0.1433E+06  0 -0.9845E+05  0 -0.1198E+06  0 -0.7369E+05  0 -0.3694E+05
   (  1, 19,  8)  (  1, 10, 20)  (  2, 12, 15)  (  4, 12, 11)  (  4, 13, 13)
  0 -0.3305E+05  0   8553.      0   8198.      0  -9724.      0  -6266.    
   (  2, 20,  4)  (  1, 20,  6)  (  2,  2, 20)  (  4, 13, 12)  (  2, 12, 12)
  0  -2697.      0  -688.4      0   1120.      0  -802.9      0  -1169.    
   (  2, 14, 14)  (  1, 20, 20)  (  1,  6, 20)  (  2, 17, 20)  (  4,  4, 20)
  0  -392.9      0  -314.1      0  -156.7      0  -460.7      0  -141.7    
   (  4,  9, 17)  (  2, 13, 13)  (  1, 20, 20)  (  2, 13, 13)  (  2, 13, 13)
  1  0.1790E+07  0  0.2233E+07  0  0.4787E+08  0  0.1220E+09  0  0.9168E+08
   (  5, 13, 13)  (  1, 20, 20)  (  2, 20,  9)  (  2, 19, 19)  (  2, 20,  4)
  0  0.9421E+08  0  0.1213E+08  0  0.4368E+08  0  0.7067E+08  0  0.4769E+08
   (  2, 12, 12)  (  1, 20, 20)  (  2, 13, 13)  (  5,  2, 20)  (  2, 13, 13)
  0  0.8987E+08  0  0.8937E+08  0  0.6462E+07  0  0.1708E+09  0  0.1427E+08
   (  2, 13, 13)  (  2, 13, 13)  (  4, 13, 13)  (  2, 19, 19)  (  3, 20, 20)
  0  0.2368E+09  0  0.8223E+08  0  0.5021E+08  0  0.8479E+09  0  0.1044E+10
   (  4, 13, 13)  (  5,  6, 18)  (  1, 20, 12)  (  4, 12, 12)  (  4, 12, 12)
  0  0.3250E+09  0  0.1002E+09  0  0.3086E+10  0  0.5534E+10  0  0.3253E+10
   (  2, 15, 15)  (  1, 20, 20)  (  4, 13, 12)  (  2,  9, 15)  (  2, 19,  9)
  0  0.6648E+09  0  0.4877E+11  0  0.4290E+10  0  0.1534E+12  0  0.1059E+11
   (  1, 17, 20)  (  4, 13, 12)  (  3, 20, 20)  (  2, 13, 13)  (  1, 20, 20)
  1 -0.3723E+06  0 -0.1171E+07  0 -0.1040E+07  0 -0.1477E+07  0 -0.9707E+06
   (  1, 20, 20)  (  2, 19, 20)  (  2, 13, 13)  (  2,  5, 20)  (  4, 12, 13)
  0 -0.7376E+06  0 -0.3395E+06  0 -0.4167E+06  0 -0.3179E+06  0 -0.2717E+06
   (  2,  5,  5)  (  1, 20, 20)  (  2,  6, 20)  (  2, 20,  7)  (  2,  7, 20)
  0 -0.1386E+06  0 -0.6132E+05  0 -0.6974E+05  0 -0.9534E+05  0 -0.4418E+05
   (  4, 17,  2)  (  4, 12, 12)  (  1, 19, 19)  (  2, 11, 11)  (  2, 17, 12)
  0 -0.5427E+05  0 -0.2963E+05  0   5193.      0 -0.1722E+05  0  -9636.    
   (  4,  6, 20)  (  1, 20,  4)  (  1, 19, 20)  (  2, 13, 13)  (  2, 13, 13)
  0  -3846.      0   845.5      0  -1205.      0  -700.3      0  -947.7    
   (  2, 13, 13)  (  1, 19, 20)  (  1,  5, 20)  (  2, 20, 10)  (  4, 11, 20)
  0  -675.8      0  -268.3      0   99.37      0  -132.0      0  -117.5    
   (  2, 20,  4)  (  2, 10, 20)  (  1, 20, 20)  (  4,  5, 20)  (  2, 12, 14)
  1  0.1372E+07  0  0.2769E+07  0  0.4896E+08  0  0.1238E+09  0  0.9216E+08
   (  3, 20, 20)  (  3, 20, 20)  (  3, 13, 13)  (  3, 13, 13)  (  3, 13, 13)
  0  0.4453E+08  0  0.5289E+08  0  0.3108E+08  0  0.9540E+08  0  0.9495E+08
   (  1, 20, 20)  (  4, 13, 13)  (  2, 19, 19)  (  4, 12, 13)  (  4, 13, 12)
  0  0.6286E+08  0  0.1026E+08  0  0.5635E+08  0  0.1314E+09  0  0.5701E+08
   (  4, 12, 13)  (  4, 12, 13)  (  4, 13, 12)  (  4, 13, 12)  (  4,  8, 20)
  0  0.1072E+08  0  0.1183E+09  0  0.1432E+09  0  0.5910E+09  0  0.8403E+09
   (  2, 20, 16)  (  1, 20, 20)  (  4, 15, 10)  (  2, 13, 13)  (  2, 13, 13)
  0  0.1754E+09  0  0.7982E+09  0  0.1194E+10  0  0.3678E+10  0  0.3896E+10
   (  4,  8, 16)  (  2, 13, 13)  (  1,  9, 19)  (  2, 13, 13)  (  3, 20,  7)
  0  0.2947E+11  0  0.2846E+10  0  0.1200E+11  0  0.5839E+11  0  0.6905E+11
   (  2, 11, 14)  (  4,  5, 20)  (  1, 20, 20)  (  2, 14, 12)  (  4, 20,  5)
  1  0.7227E+06  0  0.3614E+06  0  0.1007E+07  0  0.6732E+06  0  0.7906E+06
   (  5,  2, 20)  (  1, 20, 20)  (  2, 19, 20)  (  5, 20,  6)  (  2, 12, 12)
  0  0.5703E+06  0  0.3499E+06  0  0.1051E+06  0  0.3218E+06  0  0.1250E+06
   (  2, 20,  2)  (  1, 20,  3)  (  1, 20, 20)  (  2,  3, 20)  (  2, 20,  6)
  0  0.8486E+05  0  0.9307E+05  0  0.5818E+05  0  -9132.      0  0.2965E+05
   (  2, 12, 15)  (  2, 12, 15)  (  2, 20, 12)  (  1, 20, 20)  (  4, 12, 12)
  0  0.2578E+05  0   8890.      0   5860.      0  -965.6      0   4612.    
   (  3, 20,  3)  (  2, 18, 18)  (  2,  4, 15)  (  1, 20, 20)  (  2, 12, 12)
  0   2002.      0   1154.      0   886.8      0  -233.3      0   794.1    
   (  2, 12, 12)  (  3, 20,  8)  (  4,  3, 18)  (  1, 20, 20)  (  2, 19, 17)
  0   556.6      0   116.9      0   246.8      0   149.2      0   61.72    
   (  2, 11, 15)  (  2, 20,  5)  (  2, 13, 13)  (  2, 13, 13)  (  1, 20, 20)
  1  0.1370E+07  0  0.2399E+07  0  0.5089E+08  0  0.1349E+09  0  0.8904E+08
   (  3, 20, 20)  (  3, 20, 20)  (  3, 13, 13)  (  3, 13, 13)  (  4, 13, 13)
  0  0.2443E+08  0  0.7298E+08  0  0.7362E+08  0  0.2163E+09  0  0.4972E+08
   (  1, 11, 20)  (  4, 13, 13)  (  2, 20, 19)  (  4, 13, 12)  (  4, 12, 13)
  0  0.2693E+09  0  0.4204E+09  0  0.1073E+09  0  0.3995E+09  0  0.3015E+09
   (  1, 20,  8)  (  4, 13, 12)  (  4, 12, 13)  (  3, 12, 14)  (  4, 12, 13)
  0  0.1353E+10  0  0.1121E+10  0  0.1112E+11  0  0.6467E+09  0  0.1769E+11
   (  2, 20,  4)  (  2,  5, 20)  (  2, 13, 13)  (  1, 20, 20)  (  4,  5, 20)
  0  0.2782E+11  0  0.7775E+11  0  0.8217E+11  0  0.1111E+12  0  0.3512E+12
   (  2, 13, 13)  (  2, 13, 13)  (  4, 13, 13)  (  1, 10, 20)  (  4, 13, 13)
  0  0.2226E+12  0  0.9012E+12  0  0.4188E+12  0  0.1366E+13  0  0.3417E+13
   (  4, 13, 13)  (  2, 16, 19)  (  4, 13, 13)  (  3, 20,  7)  (  3,  6, 20)
  1 -0.6090E+07  0 -0.2385E+07  0 -0.1948E+07  0 -0.4890E+07  0 -0.3377E+07
   (  3,  6, 20)  (  2, 14, 11)  (  1, 19, 20)  (  2, 11, 14)  (  4,  3, 20)
  0 -0.3299E+07  0 -0.2075E+07  0 -0.3923E+06  0 -0.8957E+06  0 -0.9496E+06
   (  3,  4, 20)  (  4, 13, 13)  (  4,  5, 20)  (  1,  4, 20)  (  3, 19,  8)
  0 -0.5808E+06  0 -0.3446E+06  0 -0.2897E+06  0  0.4505E+05  0 -0.2086E+06
   (  4, 20,  6)  (  1,  7, 18)  (  2, 14, 14)  (  1, 20, 20)  (  4, 13, 12)
  0 -0.1577E+06  0 -0.8008E+05  0 -0.6134E+05  0 -0.2159E+05  0   6347.    
   (  2, 20,  2)  (  4, 12, 13)  (  2, 20, 10)  (  4, 11, 11)  (  1, 20, 20)
  0 -0.2316E+05  0  -9052.      0  -8483.      0  -8324.      0  -1078.    
   (  2, 19,  4)  (  2,  5, 20)  (  3, 13, 13)  (  4, 13, 13)  (  1, 20, 20)
  0  -2765.      0  -1263.      0  -2171.      0  -1100.      0  -1301.    
   (  4, 13, 13)  (  4, 13, 13)  (  4, 13, 13)  (  4, 13, 13)  (  4, 13, 13)
  1  0.1856E+07  0  0.2219E+07  0  0.4784E+08  0  0.1221E+09  0  0.9187E+08
   (  5, 13, 13)  (  1, 20, 20)  (  2,  9, 20)  (  2, 19, 19)  (  2, 20,  4)
  0  0.7107E+08  0  0.2634E+08  0  0.1045E+09  0  0.2132E+08  0  0.9592E+08
   (  2, 12, 12)  (  5, 13, 13)  (  5, 20,  2)  (  2, 13, 13)  (  2, 13, 13)
  0  0.7369E+08  0  0.8376E+07  0  0.4838E+08  0  0.1343E+09  0  0.2187E+08
   (  2,  5, 20)  (  1, 14, 20)  (  2, 20,  7)  (  2, 19, 19)  (  2, 19, 19)
  0  0.4626E+08  0  0.5025E+07  0  0.2833E+09  0  0.6913E+09  0  0.1965E+09
   (  5, 20,  4)  (  4, 13, 13)  (  2,  3, 20)  (  4, 12, 12)  (  1, 20, 20)
  0  0.7960E+09  0  0.1901E+09  0  0.4276E+10  0  0.2251E+10  0  0.2879E+09
   (  4, 12, 12)  (  3, 20, 20)  (  4, 13, 12)  (  1, 10, 20)  (  4, 12, 13)
  0  0.5672E+10  0  0.3323E+11  0  0.3705E+10  0  0.4920E+11  0  0.3622E+11
   (  2,  9, 19)  (  4, 13, 12)  (  3, 20, 20)  (  5,  3, 20)  (  1, 17, 20)
  1 -0.3339E+07  0 -0.1573E+07  0 -0.6986E+07  0 -0.2632E+07  0 -0.6453E+06
   (  1, 16, 20)  (  5,  4, 20)  (  5, 20,  5)  (  4, 11, 16)  (  1,  6, 15)
  0 -0.6079E+06  0 -0.4180E+06  0  0.5751E+05  0 -0.3111E+06  0  0.9328E+05
   (  2,  5,  5)  (  2, 20,  7)  (  1, 20, 20)  (  1,  2, 20)  (  2, 10, 20)
  0 -0.6294E+05  0 -0.5724E+05  0 -0.2460E+05  0  -8953.      0 -0.2202E+05
   (  2, 20, 16)  (  4,  5, 20)  (  4, 13, 13)  (  1, 20, 20)  (  3,  4, 20)
  0 -0.1477E+05  0   7257.      0  -5980.      0  -1001.      0  -3772.    
   (  2, 19, 19)  (  1, 20,  5)  (  2, 14, 14)  (  1, 20, 20)  (  2, 14, 14)
  0  -2484.      0  -1616.      0   493.0      0  -671.5      0   261.8    
   (  3,  2, 20)  (  2, 20,  7)  (  2, 20,  4)  (  1,  5, 20)  (  1, 20, 20)
  0  -339.3      0  -130.1      0  -175.5      0   65.22      0   38.38    
   (  2,  3, 19)  (  4, 20,  5)  (  2, 13, 13)  (  3, 10, 20)  (  1, 20, 20)
  1  0.1367E+07  0  0.2430E+07  0  0.4847E+08  0  0.1246E+09  0  0.9130E+08
   (  3, 20, 20)  (  3, 20, 20)  (  3, 13, 13)  (  3, 13, 13)  (  3, 13, 13)
  0  0.6387E+07  0  0.8377E+08  0  0.2622E+08  0  0.1336E+09  0  0.9002E+08
   (  1, 20, 20)  (  4, 13, 12)  (  2, 19, 20)  (  4, 12, 13)  (  4, 13, 12)
  0  0.2237E+08  0  0.8851E+08  0  0.1467E+09  0  0.3494E+08  0  0.3854E+09
   (  1, 20, 11)  (  2, 19,  9)  (  4, 12, 13)  (  2, 16, 20)  (  4, 13, 12)
  0  0.2429E+08  0  0.2145E+09  0  0.1970E+10  0  0.1621E+10  0  0.3309E+10
   (  1, 20, 20)  (  4,  8, 20)  (  2, 14, 14)  (  4,  5, 20)  (  2, 13, 13)
  0  0.2839E+10  0  0.1348E+11  0  0.4158E+11  0  0.8941E+10  0  0.4044E+11
   (  2, 13, 13)  (  2, 13, 13)  (  2, 13, 13)  (  1, 13, 20)  (  2, 13, 13)
  0  0.1076E+11  0  0.1174E+12  0  0.2683E+12  0  0.1651E+12  0  0.1296E+13
   (  4, 20,  2)  (  3, 20,  7)  (  1,  4, 20)  (  3,  6, 19)  (  3,  3, 20)
  1 -0.1860E+07  0  0.6645E+06  0 -0.1749E+07  0 -0.2032E+07  0 -0.1120E+07
   (  1, 20, 19)  (  1, 12, 20)  (  4, 18,  7)  (  2, 11, 14)  (  4,  3, 20)
  0 -0.1492E+07  0 -0.5552E+06  0  0.1891E+06  0 -0.6338E+06  0 -0.4517E+06
   (  2, 12, 15)  (  4, 13, 13)  (  1, 20, 20)  (  3,  8, 18)  (  3, 19,  8)
  0 -0.2267E+06  0 -0.2806E+06  0 -0.1382E+06  0  0.2365E+05  0 -0.6090E+05
   (  4, 12, 13)  (  1, 20,  3)  (  2, 14, 14)  (  1, 20, 20)  (  2, 14, 14)
  0 -0.6112E+05  0 -0.2705E+05  0 -0.2576E+05  0  -6835.      0  -9374.    
   (  4, 11, 15)  (  2, 10,  7)  (  2,  5,  9)  (  1, 15, 19)  (  2, 19, 19)
  0  -4104.      0  -3705.      0  -3705.      0   1443.      0   1252.    
   (  4, 12, 11)  (  3, 11, 20)  (  3, 13, 13)  (  4,  9, 17)  (  4, 19,  2)
  0  -447.2      0   761.0      0  -564.2      0  -308.8      0  -397.7    
   (  1, 20, 20)  (  2, 19,  3)  (  4, 12, 13)  (  2,  6, 19)  (  4, 13, 12)
  1  0.1367E+07  0  0.2533E+07  0  0.4852E+08  0  0.1237E+09  0  0.9257E+08
   (  3, 20, 20)  (  3, 20, 20)  (  3, 13, 13)  (  3, 13, 13)  (  3, 13, 13)
  0  0.5489E+07  0  0.9395E+08  0  0.4701E+08  0  0.8298E+08  0  0.7965E+08
   (  1, 20, 20)  (  4, 13, 13)  (  2, 19, 19)  (  4, 13, 12)  (  4, 12, 13)
  0  0.1575E+08  0  0.6393E+08  0  0.9377E+08  0  0.2231E+09  0  0.1325E+08
   (  1, 20, 11)  (  2, 19,  9)  (  4, 13, 12)  (  4, 12, 13)  (  4, 13, 12)
  0  0.5001E+08  0  0.1417E+09  0  0.5325E+09  0  0.3859E+09  0  0.1771E+10
   (  2, 15, 20)  (  4, 19,  2)  (  2, 14, 14)  (  1, 20, 20)  (  2, 13, 13)
  0  0.3370E+10  0  0.5470E+09  0  0.9010E+10  0  0.1060E+10  0  0.1243E+11
   (  2, 13, 13)  (  2, 13, 13)  (  2, 13, 13)  (  1, 15, 20)  (  2, 13, 13)
  0  0.1027E+11  0  0.1293E+12  0  0.6147E+10  0  0.1819E+11  0  0.2115E+12
   (  3, 20,  7)  (  2, 11, 14)  (  2, 11, 14)  (  3, 20, 20)  (  4,  5, 20)
  1 -0.3278E+07  0 -0.7491E+06  0 -0.5995E+07  0 -0.5699E+07  0 -0.1217E+07
   (  4,  2, 20)  (  3, 20,  7)  (  3, 20,  7)  (  4, 20,  2)  (  2, 12, 12)
  0 -0.1259E+07  0 -0.3904E+06  0 -0.1354E+06  0 -0.2045E+06  0 -0.1442E+06
   (  2, 20,  2)  (  4,  6, 14)  (  2,  9, 19)  (  1, 20, 18)  (  2, 12, 12)
  0 -0.1424E+06  0 -0.7143E+05  0 -0.6305E+05  0  0.1999E+05  0 -0.2909E+05
   (  2,  4, 18)  (  1,  6, 20)  (  2, 14, 14)  (  1,  6, 20)  (  4, 12, 13)
  0 -0.2824E+05  0 -0.1006E+05  0  -7639.      0   4815.      0   2414.    
   (  2, 20,  2)  (  4, 12, 13)  (  2, 19,  8)  (  3,  3, 20)  (  1, 20, 20)
  0   4076.      0   1552.      0   1360.      0   813.1      0  -378.4    
   (  2, 14, 14)  (  4, 20,  3)  (  2,  8, 20)  (  4, 17,  9)  (  2, 14, 12)
  0   213.7      0   278.8      0  -199.1      0  -198.3      0  -98.24    
   (  1, 20, 20)  (  2, 16,  9)  (  2, 19,  6)  (  4, 12, 13)  (  4, 17,  2)
  1  0.1557E+07  0  0.2279E+07  0  0.4810E+08  0  0.1232E+09  0  0.9329E+08
   (  5, 13, 13)  (  1, 20, 20)  (  2,  9, 20)  (  2, 19, 19)  (  2, 20,  4)
  0  0.1237E+08  0  0.8458E+08  0  0.1413E+08  0  0.1233E+09  0  0.1072E+09
   (  5, 13, 13)  (  2, 12, 12)  (  5, 13, 13)  (  2, 13, 13)  (  2, 13, 13)
  0  0.9868E+07  0  0.9037E+08  0  0.8781E+08  0  0.3300E+08  0  0.1663E+09
   (  5, 18,  8)  (  2, 13, 13)  (  5,  6, 20)  (  2, 19, 19)  (  4, 13, 13)
  0  0.1829E+09  0  0.1332E+08  0  0.1098E+10  0  0.3045E+10  0  0.7895E+09
   (  2, 19, 19)  (  4, 13, 13)  (  2,  3, 20)  (  2, 20, 16)  (  1, 20, 20)
  0  0.2326E+09  0  0.5842E+10  0  0.1025E+11  0  0.7908E+10  0  0.2818E+11
   (  4, 12, 12)  (  4, 12, 12)  (  1, 19,  2)  (  1, 20, 20)  (  4, 12, 13)
  0  0.1182E+11  0  0.2079E+11  0  0.2421E+12  0  0.1252E+11  0  0.3913E+12
   (  4, 12, 13)  (  2, 19,  9)  (  4, 13, 12)  (  4, 13, 12)  (  2, 13, 13)
  1  0.8000E+06  0 -0.3308E+06  0  0.8650E+06  0  0.8380E+06  0 -0.6998E+06
   (  4, 20,  8)  (  1, 20, 20)  (  4,  2, 20)  (  2, 14, 11)  (  2, 20,  5)
  0  0.6355E+06  0  0.3491E+06  0 -0.1699E+06  0  0.1070E+06  0  0.2006E+06
   (  3, 20,  3)  (  2, 13, 20)  (  2,  7, 20)  (  1, 20, 20)  (  3,  8, 19)
  0  0.1459E+06  0  0.8681E+05  0  0.7877E+05  0  0.3558E+05  0   8245.    
   (  3,  6, 20)  (  2, 14, 14)  (  2, 14, 14)  (  4, 13, 12)  (  1, 20, 20)
  0  0.2616E+05  0   9773.      0   9344.      0  -4769.      0  -4126.    
   (  2,  2, 20)  (  4, 11, 15)  (  2,  8, 20)  (  1, 20,  2)  (  2, 14, 14)
  0   1373.      0   1654.      0  -2446.      0   1081.      0  -481.9    
   (  1, 20, 20)  (  2, 17, 10)  (  2, 20,  8)  (  3, 13, 13)  (  4,  4, 20)
  0  -305.6      0  -298.1      0  -219.7      0  -436.9      0  -258.0    
   (  2, 19,  3)  (  1, 20, 20)  (  4, 20,  5)  (  2, 13, 13)  (  2, 13, 13)
  1  0.1411E+07  0  0.2388E+07  0  0.5390E+08  0  0.1531E+09  0  0.1421E+09
   (  4, 13, 13)  (  1, 20, 20)  (  2, 20,  9)  (  2, 19, 19)  (  2,  4, 20)
  0  0.1140E+08  0  0.1103E+09  0  0.1081E+09  0  0.3884E+09  0  0.5525E+09
   (  5, 13, 13)  (  2, 14, 14)  (  5, 13, 13)  (  2, 13, 13)  (  2, 13, 13)
  0  0.6112E+08  0  0.5667E+09  0  0.7335E+09  0  0.6375E+09  0  0.5288E+10
   (  1, 20, 20)  (  2,  4, 20)  (  2, 13, 13)  (  5,  9, 20)  (  2, 19, 19)
  0  0.5715E+09  0  0.8183E+10  0  0.2348E+11  0  0.2439E+10  0  0.9209E+10
   (  4, 10, 10)  (  5, 20,  7)  (  4, 12, 12)  (  3, 20, 20)  (  4, 12, 12)
  0  0.1051E+12  0  0.1108E+12  0  0.2914E+12  0  0.2695E+11  0  0.3689E+12
   (  4, 12, 12)  (  5,  3, 20)  (  4, 13, 12)  (  4, 13, 12)  (  4, 13, 12)
  0  0.2568E+12  0  0.9104E+12  0  0.4771E+13  0  0.5737E+12  0  0.9928E+13
   (  3, 20, 20)  (  4, 12, 13)  (  2,  2, 19)  (  1, 18, 20)  (  2, 20,  4)
  1  0.4645E+07  0  0.4195E+07  0 -0.6867E+07  0 -0.2420E+07  0  0.3504E+07
   (  1, 19, 20)  (  3,  6, 20)  (  2,  2, 20)  (  2, 20, 10)  (  3, 20,  6)
  0 -0.2297E+07  0  0.6414E+06  0  0.8661E+06  0  0.9046E+06  0 -0.8419E+06
   (  2, 18,  4)  (  1, 20, 20)  (  4,  5, 20)  (  4, 20,  5)  (  2, 10, 18)
  0  0.4427E+06  0 -0.4191E+06  0 -0.2717E+06  0  0.6535E+05  0 -0.1874E+06
   (  3,  7, 20)  (  2, 20,  3)  (  2,  2, 20)  (  1, 20, 20)  (  2, 15, 12)
  0  0.1192E+06  0 -0.8741E+05  0 -0.5399E+05  0 -0.4116E+05  0  -7677.    
   (  1, 20,  2)  (  3, 17,  3)  (  2, 14, 12)  (  2, 14, 14)  (  1, 20, 20)
  0 -0.3313E+05  0 -0.1802E+05  0 -0.1062E+05  0  -5201.      0  -2480.    
   (  2, 14, 14)  (  4, 20,  3)  (  2, 16, 20)  (  2, 20,  7)  (  2,  8, 20)
  0  -1873.      0  -2739.      0  -1399.      0  -1295.      0  -878.0    
   (  1, 20, 20)  (  2, 13, 13)  (  2, 13, 13)  (  2, 13, 13)  (  2, 13, 13)
  1  0.1365E+07  0  0.2400E+07  0  0.4865E+08  0  0.1262E+09  0  0.8207E+08
   (  1, 20, 20)  (  3, 20, 20)  (  3, 13, 13)  (  3, 13, 13)  (  3, 13, 13)
  0  0.1832E+08  0  0.5225E+08  0  0.6215E+08  0  0.1110E+09  0  0.6495E+08
   (  4, 13, 13)  (  2, 20, 19)  (  4, 12, 13)  (  4, 13, 12)  (  4, 12, 13)
  0  0.1966E+08  0  0.1251E+09  0  0.1712E+09  0  0.4200E+08  0  0.2647E+09
   (  1, 12, 20)  (  4, 12, 13)  (  4, 13, 12)  (  3, 20, 20)  (  4, 12, 13)
  0  0.7185E+08  0  0.9048E+09  0  0.3945E+10  0  0.3616E+09  0  0.5586E+10
   (  4, 12, 13)  (  2, 20,  4)  (  2, 14, 14)  (  3, 20, 20)  (  1, 20,  4)
  0  0.2419E+10  0  0.1515E+11  0  0.4482E+11  0  0.6336E+11  0  0.5913E+11
   (  4, 20,  5)  (  2, 13, 13)  (  2, 13, 13)  (  2, 13, 13)  (  1, 14, 20)
  0  0.3482E+11  0  0.6854E+11  0  0.7296E+12  0  0.1069E+13  0  0.8148E+11
   (  4, 13, 13)  (  3,  7, 20)  (  3, 20,  6)  (  2, 14, 11)  (  1, 20, 20)
  1 -0.1019E+07  0 -0.2440E+07  0 -0.5630E+07  0 -0.4077E+07  0 -0.4058E+07
   (  1, 20, 20)  (  4,  9, 16)  (  4, 20,  2)  (  3,  7, 20)  (  3, 20,  6)
  0 -0.2862E+07  0  0.2664E+06  0 -0.1339E+07  0 -0.1180E+07  0 -0.4404E+06
   (  2, 10, 10)  (  1, 10, 20)  (  3, 20,  3)  (  2, 11, 16)  (  2, 14, 14)
  0 -0.3287E+06  0 -0.3452E+06  0 -0.7988E+05  0 -0.1687E+06  0 -0.1683E+06
   (  4, 20,  2)  (  2,  5, 18)  (  1, 20, 20)  (  4, 13, 12)  (  4, 12, 13)
  0 -0.6966E+05  0 -0.4344E+05  0 -0.1901E+05  0   4651.      0  0.1551E+05
   (  2,  2, 20)  (  4, 13, 12)  (  2, 20,  2)  (  1, 20, 20)  (  2, 14, 14)
  0  -6506.      0  -3486.      0   1650.      0   1015.      0   1786.    
   (  3, 13, 13)  (  3, 13, 13)  (  2,  7, 20)  (  1, 20, 20)  (  2, 20,  8)
  0  -790.0      0  -630.7      0   699.3      0   110.8      0  -397.2    
   (  2, 20,  2)  (  2,  2, 20)  (  2, 13, 13)  (  1, 20, 20)  (  4, 12, 13)
  1  0.1616E+07  0  0.2268E+07  0  0.4805E+08  0  0.1228E+09  0  0.9251E+08
   (  5, 13, 13)  (  1, 20, 20)  (  2,  9, 20)  (  2, 19, 19)  (  2,  4, 20)
  0  0.3347E+08  0  0.6538E+08  0  0.5783E+08  0  0.7188E+08  0  0.1061E+09
   (  5, 13, 13)  (  1,  7, 20)  (  5,  2, 20)  (  2, 13, 13)  (  2, 13, 13)
  0  0.9444E+08  0  0.1734E+08  0  0.5989E+08  0  0.2172E+09  0  0.1893E+08
   (  2, 13, 13)  (  5,  8, 18)  (  2, 19,  8)  (  2, 19, 19)  (  4, 13, 13)
  0  0.3242E+09  0  0.1858E+09  0  0.2608E+09  0  0.2207E+10  0  0.1141E+10
   (  1, 20, 13)  (  4, 13, 13)  (  5, 19,  7)  (  4, 12, 12)  (  2, 15, 15)
  0  0.1552E+10  0  0.1513E+10  0  0.1624E+11  0  0.1109E+11  0  0.4227E+10
   (  1, 20, 20)  (  4, 12, 12)  (  4, 13, 12)  (  1,  4, 20)  (  4, 12, 13)
  0  0.2925E+11  0  0.6511E+11  0  0.6309E+11  0  0.3887E+12  0  0.2626E+11
   (  2,  9, 19)  (  3, 20, 11)  (  4, 13, 12)  (  2, 13, 13)  (  4, 10, 20)
  1  0.6974E+06  0 -0.3011E+07  0 -0.6304E+07  0 -0.6350E+07  0 -0.2370E+07
   (  1, 20, 20)  (  1,  5, 20)  (  2, 20, 19)  (  5,  6, 20)  (  2,  5,  5)
  0 -0.1425E+07  0 -0.6580E+06  0 -0.8215E+06  0 -0.6821E+06  0 -0.1825E+06
   (  2,  5,  5)  (  1, 20, 20)  (  4, 20,  8)  (  2, 16, 16)  (  1, 20,  5)
  0 -0.2010E+06  0 -0.1221E+06  0  0.2915E+05  0 -0.7904E+05  0 -0.5888E+05
   (  3, 20,  7)  (  2, 12, 15)  (  1, 20, 20)  (  2, 14, 11)  (  1,  4, 20)
  0 -0.4420E+05  0 -0.1998E+05  0   6810.      0 -0.1358E+05  0  -8208.    
   (  4, 13, 13)  (  4,  6, 20)  (  1, 20, 20)  (  2, 14, 14)  (  3, 20,  3)
  0  -5509.      0  -2307.      0  -2510.      0  -534.1      0  -1622.    
   (  2, 14, 14)  (  2,  8, 20)  (  4, 20, 11)  (  1, 20, 20)  (  2, 17, 19)
  0  -914.2      0  -390.9      0  -185.7      0  -93.86      0   217.1    
   (  4, 20,  5)  (  4,  5, 20)  (  4, 20,  5)  (  1, 20, 20)  (  4, 13, 13)
  1  0.1364E+07  0  0.2435E+07  0  0.4836E+08  0  0.1242E+09  0  0.9220E+08
   (  3, 20, 20)  (  3, 20, 20)  (  3, 13, 13)  (  3, 13, 13)  (  3, 13, 13)
  0  0.5225E+07  0  0.9228E+08  0  0.1741E+08  0  0.1310E+09  0  0.1139E+09
   (  1, 20, 20)  (  4, 13, 12)  (  2, 19, 20)  (  4, 12, 13)  (  4, 13, 12)
  0  0.1610E+08  0  0.7344E+08  0  0.1284E+09  0  0.4245E+08  0  0.3883E+09
   (  1, 20, 19)  (  4, 12, 13)  (  4, 12, 13)  (  2, 16, 20)  (  4, 13, 12)
  0  0.2284E+08  0  0.2026E+09  0  0.1672E+10  0  0.4021E+10  0  0.2471E+10
   (  1, 20, 20)  (  4,  8, 20)  (  2, 14, 14)  (  2, 13, 13)  (  2, 13, 13)
  0  0.2952E+09  0  0.1064E+11  0  0.1842E+11  0  0.3820E+11  0  0.4485E+10
   (  2, 13, 13)  (  2, 13, 13)  (  2, 13, 13)  (  2, 13, 13)  (  4, 20,  7)
  0  0.3013E+11  0  0.9644E+10  0  0.4498E+12  0  0.4626E+12  0  0.2070E+12
   (  1, 20,  9)  (  2, 20, 19)  (  2, 11, 14)  (  2, 14, 12)  (  1, 20, 14)
  1 -0.1288E+07  0  0.1038E+07  0 -0.3877E+07  0 -0.4830E+07  0 -0.3813E+07
   (  1, 20, 10)  (  1, 17, 20)  (  2, 19, 16)  (  4, 20,  8)  (  3, 20,  6)
  0 -0.1527E+07  0 -0.1663E+07  0 -0.2824E+06  0 -0.5661E+06  0 -0.5318E+06
   (  2, 15, 20)  (  4, 20,  5)  (  1, 20, 20)  (  2,  8, 19)  (  2, 12, 12)
  0 -0.3531E+06  0 -0.1707E+06  0 -0.1126E+06  0 -0.3211E+05  0 -0.9157E+05
   (  1, 20,  5)  (  2,  4, 17)  (  4, 13, 12)  (  1, 20, 20)  (  2,  9, 17)
  0 -0.6791E+05  0 -0.5236E+05  0 -0.1890E+05  0  -3121.      0  -9045.    
   (  4, 12, 13)  (  2,  2, 20)  (  2, 16, 19)  (  1, 20, 20)  (  4, 11, 12)
  0  -5024.      0   2632.      0   2582.      0  -1183.      0   883.6    
   (  4, 12, 12)  (  4,  3, 20)  (  2,  8, 20)  (  1, 19, 11)  (  1, 19, 20)
  0   943.9      0   691.1      0  -354.9      0  -429.1      0   142.4    
   (  4, 11, 20)  (  2,  3, 19)  (  3, 20, 10)  (  2,  2, 20)  (  1, 19, 20)
  1  0.1829E+07  0  0.2240E+07  0  0.4820E+08  0  0.1229E+09  0  0.9246E+08
   (  5, 13, 13)  (  1, 20, 20)  (  2,  9, 20)  (  2, 19, 19)  (  2,  4, 20)
  0  0.2300E+08  0  0.7518E+08  0  0.8315E+08  0  0.4378E+08  0  0.8934E+08
   (  5, 13, 13)  (  2, 12, 12)  (  5, 20,  2)  (  2, 13, 13)  (  2, 13, 13)
  0  0.4392E+08  0  0.1806E+08  0  0.7708E+08  0  0.1728E+09  0  0.2448E+08
   (  2,  4, 20)  (  1, 20, 15)  (  3, 20,  5)  (  2, 19, 19)  (  2, 19, 20)
  0  0.1934E+09  0  0.1644E+08  0  0.1253E+09  0  0.7761E+09  0  0.1117E+10
   (  4, 13, 13)  (  4, 13, 13)  (  5,  6, 18)  (  4, 12, 12)  (  4, 12, 12)
  0  0.1107E+09  0  0.2169E+10  0  0.1014E+10  0  0.3572E+10  0  0.2980E+10
   (  1, 20, 20)  (  4, 12, 13)  (  3, 20, 20)  (  4, 13, 12)  (  2, 20,  9)
  0  0.9726E+09  0  0.4498E+11  0  0.9491E+11  0  0.1294E+11  0  0.1107E+11
   (  1, 20, 13)  (  4, 12, 13)  (  4, 15, 11)  (  3, 20, 20)  (  2, 13, 13)
  1  0.4537E+06  0 -0.3258E+07  0 -0.4391E+07  0 -0.5482E+07  0 -0.1203E+07
   (  1, 20, 20)  (  2,  5, 20)  (  5,  5, 20)  (  2, 20,  4)  (  4,  2, 16)
  0 -0.1010E+07  0  0.1812E+06  0 -0.3265E+06  0 -0.4064E+06  0 -0.1614E+06
   (  2,  5,  5)  (  1, 11, 20)  (  1, 20,  7)  (  2,  7, 20)  (  2, 20,  7)
  0 -0.1254E+06  0 -0.6425E+05  0 -0.4056E+05  0 -0.4183E+05  0 -0.2616E+05
   (  2, 20, 16)  (  4, 12, 12)  (  3, 20,  3)  (  1, 20, 20)  (  2, 12, 15)
  0 -0.3348E+05  0 -0.1059E+05  0  -9056.      0   1555.      0  -5001.    
   (  4, 13, 13)  (  3,  6, 20)  (  2, 13, 13)  (  1, 20, 20)  (  2, 13, 13)
  0  -2272.      0  -896.0      0  -1441.      0   302.6      0  -562.3    
   (  3,  6, 20)  (  4,  3, 20)  (  2, 20,  8)  (  1, 20, 20)  (  2, 20, 17)
  0  -496.7      0  -189.7      0  -181.5      0   67.47      0  -42.01    
[...]
  0  0.7283E+09  0  0.4677E+09  0  0.4539E+09  0  0.2768E+09  0  0.1933E+09
   (  3, 13, 13)  (  3, 13, 13)  (  3, 13, 13)  (  3, 13, 13)  (  3, 13, 13)
  0  0.1505E+09  0  0.9566E+08  0  0.4766E+08  0  0.4229E+08  0 -0.1767E+08
   (  5, 12, 14)  (  5, 12, 14)  (  5, 12, 14)  (  5, 12, 14)  (  3, 14, 12)
  0  0.1085E+08  0  0.1020E+08  0  0.8106E+07  0  0.7823E+07  0  0.4783E+07
   (  5, 13, 13)  (  5, 13, 13)  (  5, 13, 13)  (  5, 13, 13)  (  5, 13, 13)
  0  0.3079E+07  0  0.2544E+07  0 -0.1363E+07  0 -0.1333E+07  0 -0.5320E+06
   (  5, 13, 13)  (  5, 13, 13)  (  3, 13, 13)  (  3, 13, 13)  (  3, 13, 13)
  0 -0.3487E+06  0 -0.2768E+06  0 -0.1386E+06  0 -0.1245E+06  0 -0.9753E+05
   (  5, 11, 15)  (  5, 11, 15)  (  5, 15, 11)  (  5, 15, 11)  (  5, 15, 11)
  1 -0.7249E+09  0 -0.7180E+09  0 -0.5734E+09  0 -0.2714E+09  0 -0.1404E+09
   (  5, 13, 13)  (  5, 13, 13)  (  5, 13, 13)  (  5, 13, 13)  (  5, 13, 13)
  0 -0.1344E+09  0 -0.7146E+08  0 -0.7018E+08  0 -0.5789E+08  0 -0.5133E+08
   (  5, 13, 13)  (  5, 14, 12)  (  5, 14, 12)  (  5, 12, 14)  (  5, 14, 12)
  0 -0.4813E+08  0  0.5008E+08  0  0.5088E+08  0  0.5057E+08  0  0.4820E+08
   (  5, 14, 12)  (  5, 13, 13)  (  5, 13, 13)  (  5, 13, 13)  (  5, 13, 13)
  0  0.4921E+08  0  0.7829E+08  0  0.1760E+09  0  0.1776E+09  0  0.1965E+09
   (  5, 12, 14)  (  5, 14, 12)  (  5, 12, 14)  (  5, 12, 14)  (  5, 14, 12)
  0  0.2812E+09  0  0.3419E+09  0  0.3528E+09  0  0.3563E+09  0  0.6000E+09
   (  5, 14, 12)  (  5, 12, 14)  (  5, 12, 14)  (  5, 12, 14)  (  5, 15, 11)
  0  0.6991E+09  0  0.9287E+09  0  0.1293E+10  0  0.2463E+10  0  0.3208E+10
   (  5, 15, 11)  (  5, 11, 15)  (  5, 11, 15)  (  5, 11, 15)  (  5, 15, 11)
  1  0.6603E+10  0  0.6484E+10  0  0.3832E+10  0  0.2555E+10  0  0.1659E+10
   (  5, 13, 13)  (  5, 13, 13)  (  3, 13, 13)  (  3, 13, 13)  (  3, 13, 13)
  0  0.9345E+09  0  0.5972E+09  0  0.5842E+09  0  0.4600E+09  0  0.2690E+09
   (  3, 13, 13)  (  3, 13, 13)  (  3, 13, 13)  (  5, 12, 14)  (  5, 12, 14)
  0 -0.1901E+09  0 -0.1272E+09  0 -0.6871E+08  0 -0.6667E+08  0  0.5267E+08
   (  5, 11, 15)  (  5, 11, 15)  (  5, 15, 11)  (  5, 15, 11)  (  5, 13, 13)
  0  0.5128E+08  0  0.3488E+08  0  0.2668E+08  0  0.2585E+08  0  0.1470E+08
   (  5, 13, 13)  (  5, 13, 13)  (  5, 13, 13)  (  5, 13, 13)  (  5, 13, 13)
  0  0.8672E+07  0  0.6061E+07  0  0.2655E+07  0  0.2298E+07  0  0.1317E+07
   (  5, 13, 13)  (  5, 13, 13)  (  5, 13, 13)  (  5, 13, 13)  (  5, 13, 13)
  0 -0.6460E+06  0 -0.4191E+06  0 -0.3367E+06  0 -0.1895E+06  0  0.1829E+06
   (  5, 18,  9)  (  5,  9, 18)  (  5,  9, 18)  (  5, 18,  9)  (  5, 12, 19)
  1 -0.3997E+09  0 -0.3958E+09  0 -0.3139E+09  0 -0.1393E+09  0 -0.6020E+08
   (  5, 13, 13)  (  5, 13, 13)  (  5, 13, 13)  (  5, 13, 13)  (  5, 13, 13)
  0 -0.5640E+08  0 -0.4088E+08  0 -0.4018E+08  0 -0.4711E+08  0  0.5653E+08
   (  5, 13, 13)  (  5, 12, 14)  (  5, 12, 14)  (  3, 13, 13)  (  5, 13, 13)
  0  0.5952E+08  0  0.8262E+08  0  0.8427E+08  0  0.8374E+08  0  0.8204E+08
   (  5, 13, 13)  (  5, 13, 13)  (  5, 13, 13)  (  5, 13, 13)  (  5, 13, 13)
  0  0.1311E+09  0  0.1650E+09  0  0.3228E+09  0  0.3269E+09  0  0.4019E+09
   (  5, 12, 14)  (  5, 14, 12)  (  5, 12, 14)  (  5, 12, 14)  (  5, 14, 12)
  0  0.5053E+09  0  0.5916E+09  0  0.6739E+09  0  0.6729E+09  0  0.8133E+09
   (  5, 14, 12)  (  5, 12, 14)  (  5, 14, 12)  (  5, 14, 12)  (  5, 15, 11)
  0  0.1379E+10  0  0.1613E+10  0  0.3044E+10  0  0.3846E+10  0  0.5689E+10
   (  5, 15, 11)  (  5, 15, 11)  (  5, 11, 15)  (  5, 11, 15)  (  5, 15, 11)
  1  0.6051E+10  0  0.5839E+10  0  0.4753E+10  0  0.3612E+10  0  0.2271E+10
   (  3, 13, 13)  (  3, 13, 13)  (  3, 13, 13)  (  3, 13, 13)  (  3, 13, 13)
  0  0.1448E+10  0  0.1120E+10  0  0.1081E+10  0  0.5719E+09  0  0.4464E+09
   (  3, 13, 13)  (  3, 13, 13)  (  3, 13, 13)  (  3, 13, 13)  (  5, 12, 14)
  0  0.2984E+09  0 -0.1846E+09  0  0.1290E+09  0  0.1286E+09  0  0.1228E+09
   (  5, 14, 12)  (  5, 15, 11)  (  5, 13, 13)  (  5, 13, 13)  (  5, 13, 13)
  0  0.1047E+09  0  0.6966E+08  0  0.5306E+08  0  0.2831E+08  0  0.2768E+08
   (  5, 13, 13)  (  5, 13, 13)  (  5, 13, 13)  (  5, 13, 13)  (  5, 13, 13)
  0  0.1523E+08  0  0.7226E+07  0  0.4530E+07  0 -0.1259E+07  0 -0.9429E+06
   (  5, 13, 13)  (  5, 13, 13)  (  5, 13, 13)  (  5,  9, 18)  (  5,  9, 18)
  0 -0.8416E+06  0 -0.5559E+06  0  0.4349E+06  0  0.2755E+06  0  0.2036E+06
   (  5,  9, 18)  (  5, 18,  9)  (  5, 14, 12)  (  5, 12, 14)  (  5, 12, 14)
  1  0.1333E+09  0  0.1319E+09  0  0.9700E+08  0  0.1622E+08  0  0.5015E+08
   (  5, 13, 13)  (  5, 13, 13)  (  5, 13, 13)  (  3, 12, 13)  (  3, 13, 13)
  0  0.5404E+08  0 -0.1008E+09  0 -0.1099E+09  0 -0.1489E+09  0 -0.1825E+09
   (  3, 13, 13)  (  5, 13, 13)  (  5, 13, 13)  (  5, 13, 13)  (  5, 13, 13)
  0 -0.1866E+09  0 -0.2165E+09  0 -0.2439E+09  0 -0.2295E+09  0 -0.2229E+09
   (  5, 13, 13)  (  5, 13, 13)  (  5, 13, 13)  (  5, 13, 13)  (  5, 13, 13)
  0 -0.2347E+09  0 -0.4630E+09  0 -0.9720E+09  0 -0.1277E+10  0 -0.1330E+10
   (  5, 14, 12)  (  5, 14, 12)  (  5, 12, 14)  (  5, 12, 14)  (  5, 12, 14)
  0 -0.1407E+10  0 -0.1705E+10  0 -0.1872E+10  0 -0.2025E+10  0 -0.2021E+10
   (  5, 12, 14)  (  5, 14, 12)  (  5, 12, 14)  (  5, 12, 14)  (  5, 12, 14)
  0 -0.4770E+10  0 -0.5156E+10  0 -0.1001E+11  0 -0.1369E+11  0 -0.1546E+11
   (  5, 15, 11)  (  5, 15, 11)  (  5, 11, 15)  (  5, 11, 15)  (  5, 15, 11)
  1 -0.1492E+11  0 -0.1440E+11  0 -0.9754E+10  0 -0.7902E+10  0 -0.4481E+10
   (  5, 15, 11)  (  5, 15, 11)  (  5, 11, 15)  (  5, 11, 15)  (  5, 15, 11)
  0  0.2226E+10  0 -0.1721E+10  0 -0.1688E+10  0 -0.1521E+10  0 -0.1292E+10
   (  3, 15, 11)  (  5, 14, 12)  (  5, 14, 12)  (  5, 12, 14)  (  5, 12, 14)
  0 -0.9243E+09  0 -0.5904E+09  0 -0.3600E+09  0 -0.3341E+09  0  0.2461E+09
   (  5, 12, 14)  (  5, 14, 12)  (  5, 14, 12)  (  5, 14, 12)  (  3, 13, 13)
  0  0.2198E+09  0  0.1837E+09  0  0.1368E+09  0  0.1350E+09  0  0.9363E+08
   (  3, 13, 13)  (  3, 13, 13)  (  3, 13, 13)  (  3, 13, 13)  (  3, 13, 13)
  0  0.4830E+08  0  0.3053E+08  0  0.1994E+08  0  0.7454E+07  0  0.5767E+07
   (  3, 13, 13)  (  3, 13, 13)  (  3, 13, 13)  (  3, 13, 13)  (  3, 13, 13)
  0  0.3867E+07  0  0.1985E+07  0  0.1533E+07  0 -0.1120E+07  0 -0.9496E+06
   (  3, 13, 13)  (  5, 18,  9)  (  5, 18,  9)  (  5, 12, 14)  (  5, 14, 12)
  1  0.1961E+10  0  0.1942E+10  0  0.1554E+10  0  0.7521E+09  0  0.4034E+09
   (  5, 13, 13)  (  5, 13, 13)  (  5, 13, 13)  (  5, 13, 13)  (  5, 13, 13)
  0  0.2115E+09  0  0.1874E+09  0  0.1712E+09  0  0.1563E+09  0  0.1296E+09
   (  5, 13, 13)  (  5, 14, 12)  (  5, 12, 14)  (  5, 12, 14)  (  5, 12, 14)
  0  0.8853E+08  0  0.8643E+08  0  0.5392E+08  0 -0.2733E+08  0 -0.2245E+08
   (  5, 14, 12)  (  5, 14, 12)  (  5, 12, 14)  (  5, 13, 13)  (  5, 13, 13)
  0 -0.2123E+08  0 -0.2070E+08  0 -0.6287E+08  0 -0.1039E+09  0 -0.1065E+09
   (  5, 13, 13)  (  5, 13, 13)  (  5, 12, 14)  (  5, 14, 12)  (  5, 14, 12)
  0 -0.1297E+09  0 -0.1316E+09  0 -0.1317E+09  0 -0.2334E+09  0 -0.2885E+09
   (  5, 12, 14)  (  5, 12, 14)  (  5, 12, 14)  (  5, 11, 15)  (  5, 15, 11)
  0 -0.3431E+09  0 -0.8844E+09  0 -0.9229E+09  0 -0.1192E+10  0 -0.1280E+10
   (  5, 15, 11)  (  5, 11, 15)  (  5, 11, 15)  (  5, 15, 11)  (  5, 15, 11)
  1  0.5172E+10  0  0.4494E+10  0  0.2232E+10  0  0.1193E+10  0  0.9707E+09
   (  3, 13, 13)  (  3, 13, 13)  (  3, 13, 13)  (  5, 13, 13)  (  5, 13, 13)
  0  0.7130E+09  0  0.6301E+09  0  0.4696E+09  0  0.3337E+09  0  0.2268E+09
   (  5, 13, 13)  (  5, 13, 13)  (  5, 13, 13)  (  5, 13, 13)  (  5, 13, 13)
  0  0.1287E+09  0  0.1218E+09  0  0.7010E+08  0 -0.1810E+08  0 -0.9196E+07
   (  5, 13, 13)  (  5, 13, 13)  (  5, 13, 13)  (  5, 12, 14)  (  3, 15, 11)
  0  0.7455E+07  0  0.5603E+07  0  0.5635E+07  0  0.5024E+07  0  0.3683E+07
   (  5, 10, 17)  (  3, 13, 13)  (  3, 13, 13)  (  3, 13, 13)  (  3, 13, 13)
  0  0.2201E+07  0  0.1572E+07  0  0.1402E+07  0  0.1039E+07  0  0.3041E+06
   (  3, 13, 13)  (  3, 13, 13)  (  3, 13, 13)  (  3, 13, 13)  (  3, 13, 13)
  0  0.2394E+06  0  0.1474E+06  0  0.1317E+06  0  0.8983E+05  0  0.7310E+05
   (  5, 11, 15)  (  5, 15, 11)  (  5, 15, 11)  (  5, 15, 11)  (  5, 11, 15)
  1  0.1079E+10  0  0.1069E+10  0  0.8550E+09  0  0.4104E+09  0  0.2161E+09
   (  5, 13, 13)  (  5, 13, 13)  (  5, 13, 13)  (  5, 13, 13)  (  5, 13, 13)
  0  0.2064E+09  0  0.1041E+09  0  0.1025E+09  0  0.8615E+08  0  0.7415E+08
   (  5, 13, 13)  (  5, 12, 14)  (  5, 12, 14)  (  5, 14, 12)  (  5, 12, 14)
  0  0.6481E+08  0  0.4158E+08  0 -0.4102E+08  0 -0.3996E+08  0 -0.3846E+08
   (  5, 12, 14)  (  5, 14, 12)  (  5, 13, 13)  (  5, 13, 13)  (  5, 14, 12)
  0 -0.3960E+08  0 -0.1057E+09  0 -0.1228E+09  0 -0.1706E+09  0 -0.1854E+09
   (  5, 14, 12)  (  5, 12, 14)  (  5, 14, 12)  (  5, 14, 12)  (  5, 12, 14)
  0 -0.1911E+09  0 -0.2276E+09  0 -0.2438E+09  0 -0.2368E+09  0 -0.5110E+09
   (  5, 12, 14)  (  5, 14, 12)  (  5, 14, 12)  (  5, 12, 14)  (  5, 11, 15)
  0 -0.8006E+09  0 -0.9213E+09  0 -0.1507E+10  0 -0.1673E+10  0 -0.2683E+10
   (  5, 15, 11)  (  5, 15, 11)  (  5, 11, 15)  (  5, 11, 15)  (  5, 15, 11)
  1 -0.2374E+10  0 -0.2328E+10  0 -0.1963E+10  0 -0.1231E+10  0 -0.7767E+09
   (  5, 11, 15)  (  5, 11, 15)  (  5, 11, 15)  (  5, 15, 11)  (  5, 11, 15)
  0  0.4549E+09  0 -0.3314E+09  0 -0.3278E+09  0 -0.3188E+09  0 -0.2790E+09
   (  3, 15, 11)  (  5, 12, 14)  (  5, 12, 14)  (  5, 12, 14)  (  5, 14, 12)
  0 -0.2198E+09  0 -0.1538E+09  0 -0.8975E+08  0 -0.7755E+08  0  0.4050E+08
   (  5, 14, 12)  (  5, 12, 14)  (  5, 12, 14)  (  5, 12, 14)  (  3, 12, 14)
  0  0.2614E+08  0  0.2449E+08  0  0.2098E+08  0  0.1627E+08  0  0.1589E+08
   (  3, 13, 13)  (  3, 13, 13)  (  3, 13, 13)  (  3, 13, 13)  (  3, 13, 13)
  0  0.9130E+07  0  0.6617E+07  0  0.4176E+07  0  0.1850E+07  0  0.1706E+07
   (  3, 13, 13)  (  3, 13, 13)  (  3, 13, 13)  (  3, 13, 13)  (  3, 13, 13)
  0  0.6618E+06  0  0.4639E+06  0 -0.2702E+06  0 -0.1995E+06  0 -0.1202E+06
   (  3, 13, 13)  (  3, 13, 13)  (  5, 18,  8)  (  5, 18,  8)  (  5,  8, 18)
  1  0.1245E+10  0  0.1233E+10  0  0.9868E+09  0  0.4752E+09  0  0.2516E+09
   (  5, 13, 13)  (  5, 13, 13)  (  5, 13, 13)  (  5, 13, 13)  (  5, 13, 13)
  0  0.2292E+09  0  0.1196E+09  0  0.1170E+09  0  0.9878E+08  0  0.6333E+08
   (  5, 13, 13)  (  5, 14, 12)  (  5, 14, 12)  (  5, 12, 14)  (  5, 14, 12)
  0  0.5988E+08  0 -0.3943E+08  0 -0.3840E+08  0 -0.3674E+08  0 -0.2768E+08
   (  5, 14, 12)  (  5, 13, 13)  (  5, 13, 13)  (  5, 13, 13)  (  5, 12, 14)
  0 -0.3787E+08  0 -0.4194E+08  0 -0.1018E+09  0 -0.1617E+09  0 -0.1654E+09
   (  5, 14, 12)  (  5, 14, 12)  (  5, 12, 14)  (  5, 12, 14)  (  5, 12, 14)
  0 -0.1862E+09  0 -0.2078E+09  0 -0.3950E+09  0 -0.5060E+09  0 -0.8332E+09
   (  5, 14, 12)  (  5, 14, 12)  (  5, 11, 15)  (  5, 11, 15)  (  5, 11, 15)
  0 -0.8974E+09  0 -0.1040E+10  0 -0.1468E+10  0 -0.2502E+10  0 -0.2877E+10
   (  5, 11, 15)  (  5, 15, 11)  (  5, 15, 11)  (  5, 11, 15)  (  5, 11, 15)
  1  0.2865E+10  0  0.2762E+10  0  0.1879E+10  0  0.1570E+10  0  0.9050E+09
   (  3, 13, 13)  (  3, 13, 13)  (  3, 13, 13)  (  3, 13, 13)  (  3, 13, 13)
  0  0.7374E+09  0  0.6932E+09  0  0.5592E+09  0  0.4282E+09  0  0.3159E+09
   (  5, 13, 13)  (  5, 13, 13)  (  5, 13, 13)  (  5, 13, 13)  (  5, 13, 13)
  0  0.2283E+09  0 -0.1313E+09  0 -0.1251E+09  0 -0.5982E+08  0  0.3307E+08
   (  5, 13, 13)  (  5, 14, 12)  (  5, 14, 12)  (  5, 12, 14)  (  3, 13, 13)
  0  0.3300E+08  0  0.2782E+08  0  0.2737E+08  0  0.2246E+08  0  0.1538E+08
   (  3, 13, 13)  (  3, 13, 13)  (  3, 13, 13)  (  3, 13, 13)  (  3, 13, 13)
  0  0.1011E+08  0  0.7804E+07  0  0.6626E+07  0  0.4755E+07  0  0.2528E+07
   (  3, 13, 13)  (  3, 13, 13)  (  3, 13, 13)  (  3, 13, 13)  (  3, 13, 13)
  0  0.1245E+07  0  0.4824E+06  0  0.3748E+06  0  0.3614E+06  0 -0.2218E+06
   (  3, 13, 13)  (  3, 13, 13)  (  5, 11, 15)  (  5, 11, 15)  (  5, 18,  8)
  1  0.1037E+10  0  0.1027E+10  0  0.8213E+09  0  0.3940E+09  0  0.2078E+09
   (  5, 13, 13)  (  5, 13, 13)  (  5, 13, 13)  (  5, 13, 13)  (  5, 13, 13)
  0  0.2011E+09  0  0.1004E+09  0  0.9887E+08  0  0.8246E+08  0  0.6910E+08
   (  5, 13, 13)  (  5, 14, 12)  (  5, 14, 12)  (  5, 12, 14)  (  5, 14, 12)
  0  0.5639E+08  0 -0.4096E+08  0 -0.4137E+08  0 -0.4006E+08  0 -0.3678E+08
   (  5, 14, 12)  (  5, 13, 13)  (  5, 13, 13)  (  5, 13, 13)  (  5, 13, 13)
  0 -0.4124E+08  0 -0.8303E+08  0 -0.1228E+09  0 -0.1240E+09  0 -0.1781E+09
   (  5, 14, 12)  (  5, 12, 14)  (  5, 14, 12)  (  5, 14, 12)  (  5, 14, 12)
  0 -0.1967E+09  0 -0.2433E+09  0 -0.2439E+09  0 -0.2416E+09  0 -0.5193E+09
   (  5, 12, 14)  (  5, 12, 14)  (  5, 12, 14)  (  5, 12, 14)  (  5, 11, 15)
  0 -0.5901E+09  0 -0.7497E+09  0 -0.7774E+09  0 -0.1732E+10  0 -0.2756E+10
   (  5, 15, 11)  (  5, 15, 11)  (  5, 15, 11)  (  5, 11, 15)  (  5, 15, 11)
  1  0.6079E+10  0  0.5770E+10  0  0.4457E+10  0  0.1853E+10  0  0.1070E+10
   (  3, 13, 13)  (  3, 13, 13)  (  3, 13, 13)  (  3, 13, 13)  (  3, 13, 13)
  0  0.8601E+09  0  0.8184E+09  0  0.7427E+09  0  0.5967E+09  0  0.4238E+09
   (  5, 13, 13)  (  5, 13, 13)  (  5, 13, 13)  (  5, 13, 13)  (  5, 13, 13)
  0  0.2921E+09  0  0.1696E+09  0  0.1528E+09  0 -0.6706E+08  0  0.2353E+08
   (  5, 13, 13)  (  5, 13, 13)  (  5, 13, 13)  (  5, 14, 12)  (  3, 14, 12)
  0 -0.1652E+08  0  0.1379E+08  0  0.1336E+08  0  0.1252E+08  0  0.9951E+07
   (  5,  9, 17)  (  3, 13, 13)  (  3, 13, 13)  (  3, 13, 13)  (  3, 13, 13)
  0  0.5714E+07  0  0.4069E+07  0  0.3345E+07  0  0.3172E+07  0  0.1424E+07
   (  3, 13, 13)  (  3, 13, 13)  (  3, 13, 13)  (  3, 13, 13)  (  3, 13, 13)
  0  0.5603E+06  0  0.4619E+06  0  0.2808E+06  0 -0.1386E+06  0 -0.1331E+06
   (  5, 15, 11)  (  5, 15, 11)  (  5, 15, 11)  (  5,  8, 18)  (  5,  8, 18)
  1  0.3322E+10  0  0.3290E+10  0  0.2634E+10  0  0.1278E+10  0  0.6889E+09
   (  5, 13, 13)  (  5, 13, 13)  (  5, 13, 13)  (  5, 13, 13)  (  5, 13, 13)
  0  0.5869E+09  0  0.3174E+09  0  0.2799E+09  0  0.2646E+09  0  0.1860E+09
   (  5, 13, 13)  (  5, 14, 12)  (  5, 12, 14)  (  5, 12, 14)  (  5, 14, 12)
  0  0.1424E+09  0  0.1369E+09  0  0.1022E+09  0  0.4927E+08  0 -0.2487E+08
   (  5, 12, 14)  (  5, 12, 14)  (  5, 12, 14)  (  5, 14, 12)  (  5, 13, 13)
  0 -0.2377E+08  0 -0.1746E+08  0 -0.3183E+08  0 -0.5991E+08  0 -0.7471E+08
   (  5, 13, 13)  (  5, 15, 12)  (  5, 12, 14)  (  5, 14, 12)  (  5, 12, 14)
  0 -0.7720E+08  0 -0.7658E+08  0 -0.8135E+08  0 -0.1748E+09  0 -0.4173E+09
   (  5, 12, 14)  (  5, 12, 14)  (  5, 15, 11)  (  5, 11, 15)  (  5, 11, 15)
  0 -0.4836E+09  0 -0.5552E+09  0 -0.8011E+09  0 -0.9234E+09  0 -0.1047E+10
   (  5, 11, 15)  (  5, 15, 11)  (  5, 11, 15)  (  5, 11, 15)  (  5, 11, 15)
  1  0.2166E+10  0  0.2118E+10  0  0.1572E+10  0  0.1062E+10  0  0.6821E+09
   (  5, 13, 13)  (  5, 13, 13)  (  5, 13, 13)  (  5, 13, 13)  (  5, 13, 13)
  0  0.4482E+09  0  0.3348E+09  0  0.3187E+09  0  0.1862E+09  0  0.1048E+09
   (  5, 13, 13)  (  5, 13, 13)  (  5, 13, 13)  (  5, 13, 13)  (  5, 13, 13)
  0  0.5504E+08  0  0.3325E+08  0  0.2381E+08  0  0.2093E+08  0  0.1506E+08
   (  5, 13, 13)  (  5, 13, 13)  (  5, 13, 13)  (  5, 13, 13)  (  5, 13, 13)
  0  0.8264E+07  0  0.3979E+07  0  0.3135E+07  0  0.2959E+07  0  0.1993E+07
   (  5, 13, 13)  (  3, 13, 13)  (  3, 13, 13)  (  3, 13, 13)  (  3, 13, 13)
  0  0.1652E+07  0  0.1192E+07  0  0.8533E+06  0  0.5605E+06  0  0.4612E+06
   (  3, 13, 13)  (  3, 13, 13)  (  3, 13, 13)  (  3, 13, 13)  (  3, 13, 13)
  0  0.3510E+06  0  0.1873E+06  0  0.9924E+05  0  0.9162E+05  0  0.6670E+05
   (  3, 13, 13)  (  3, 13, 13)  (  5, 13, 13)  (  5, 13, 13)  (  5, 13, 13)
  1 -0.3078E+10  0 -0.3049E+10  0 -0.2441E+10  0 -0.1184E+10  0 -0.6378E+09
   (  5, 13, 13)  (  5, 13, 13)  (  5, 13, 13)  (  5, 13, 13)  (  5, 13, 13)
  0 -0.5614E+09  0 -0.2943E+09  0 -0.2802E+09  0 -0.2452E+09  0 -0.1670E+09
   (  5, 13, 13)  (  5, 12, 14)  (  5, 14, 12)  (  5, 14, 12)  (  5, 12, 14)
  0 -0.1074E+09  0 -0.1056E+09  0 -0.3660E+08  0  0.2598E+08  0  0.2421E+08
   (  5, 14, 12)  (  5, 14, 12)  (  5, 12, 14)  (  5, 13, 13)  (  5, 13, 13)
  0  0.1639E+08  0  0.2418E+08  0  0.3674E+08  0  0.6581E+08  0  0.6747E+08
   (  5, 12, 15)  (  5, 12, 14)  (  5, 14, 12)  (  5, 12, 14)  (  5, 12, 14)
  0  0.8338E+08  0  0.8517E+08  0  0.1615E+09  0  0.2127E+09  0  0.2875E+09
   (  5, 14, 12)  (  5, 14, 12)  (  5, 11, 15)  (  5, 15, 11)  (  5, 15, 11)
  0  0.5164E+09  0  0.5624E+09  0  0.6306E+09  0  0.7612E+09  0  0.1059E+10
   (  5, 11, 15)  (  5, 11, 15)  (  5, 11, 15)  (  5, 11, 15)  (  5, 15, 11)
  1  0.6438E+10  0  0.6296E+10  0  0.4790E+10  0  0.2414E+10  0  0.1299E+10
   (  5, 13, 13)  (  5, 13, 13)  (  5, 13, 13)  (  5, 13, 13)  (  5, 13, 13)
  0  0.6418E+09  0  0.5194E+09  0  0.5097E+09  0  0.4112E+09  0  0.3492E+09
   (  5, 13, 13)  (  5, 12, 14)  (  5, 12, 14)  (  5, 12, 14)  (  5, 14, 12)
  0  0.2319E+09  0  0.1584E+09  0  0.5939E+08  0  0.5508E+08  0  0.3459E+08
   (  5, 14, 12)  (  5, 14, 12)  (  3, 13, 13)  (  3, 13, 13)  (  3, 13, 13)
  0  0.1830E+08  0  0.9632E+07  0  0.6642E+07  0  0.6101E+07  0  0.4440E+07
   (  3, 13, 13)  (  3, 13, 13)  (  3, 13, 13)  (  3, 13, 13)  (  3, 13, 13)
  0  0.3023E+07  0  0.2124E+07  0  0.1694E+07  0  0.9694E+06  0  0.8121E+06
   (  3, 13, 13)  (  3, 13, 13)  (  3, 13, 13)  (  3, 13, 13)  (  3, 13, 13)
  0  0.4180E+06  0  0.3398E+06  0  0.2381E+06  0  0.1965E+06  0  0.1077E+06
   (  3, 13, 13)  (  5, 10, 16)  (  5, 10, 16)  (  5, 16, 10)  (  5, 16, 10)



 OUTPUT CONTROL FOR STRESS PERIOD    1   TIME STEP    1
    SAVE HEAD FOR ALL LAYERS
    SAVE BUDGET

         ****FAILED TO MEET SOLVER CONVERGENCE CRITERIA IN TIME STEP    1 OF STRESS PERIOD    1****

 HEAD WILL BE SAVED ON UNIT   51 AT END OF TIME STEP    1, STRESS PERIOD    1
1
  VOLUMETRIC BUDGET FOR ENTIRE MODEL AT END OF TIME STEP    1, STRESS PERIOD   1
  ------------------------------------------------------------------------------

     CUMULATIVE VOLUMES      L**3       RATES FOR THIS TIME STEP      L**3/T
     ------------------                 ------------------------

           IN:                                      IN:
           ---                                      ---
             STORAGE =           0.0000               STORAGE =           0.0000
       CONSTANT HEAD =           0.0000         CONSTANT HEAD =           0.0000
               WELLS =           0.0000                 WELLS =           0.0000
            RECHARGE =    32941250.0000              RECHARGE =       90250.0000
                MNW2 = 77521993728.0000                  MNW2 =   212389024.0000

            TOTAL IN = 77554933760.0000              TOTAL IN =   212479280.0000

          OUT:                                     OUT:
          ----                                     ----
             STORAGE =           0.0000               STORAGE =           0.0000
       CONSTANT HEAD =           0.0000         CONSTANT HEAD =           0.0000
               WELLS =    14600000.0000                 WELLS =       40000.0000
            RECHARGE =           0.0000              RECHARGE =           0.0000
                MNW2 = 77523812352.0000                  MNW2 =   212394000.0000

           TOTAL OUT = 77538410496.0000             TOTAL OUT =   212434000.0000

            IN - OUT =    16523264.0000              IN - OUT =       45280.0000

 PERCENT DISCREPANCY =           0.02     PERCENT DISCREPANCY =           0.02






         TIME SUMMARY AT END OF TIME STEP    1 IN STRESS PERIOD    1
                    SECONDS     MINUTES      HOURS       DAYS        YEARS
                    -----------------------------------------------------------
   TIME STEP LENGTH 3.15360E+07 5.25600E+05  8760.0      365.00     0.99932    
 STRESS PERIOD TIME 3.15360E+07 5.25600E+05  8760.0      365.00     0.99932    
         TOTAL TIME 3.15360E+07 5.25600E+05  8760.0      365.00     0.99932    
1
 FAILURE TO MEET SOLVER CONVERGENCE CRITERIA
 BUDGET PERCENT DISCREPANCY IS    0.0213
 STOPPING SIMULATION

 Run end date and time (yyyy/mm/dd hh:mm:ss): 2025/08/08 18:27:42
 Elapsed run time:  0.107 Seconds

