                                   MODFLOW 6
                U.S. GEOLOGICAL SURVEY MODULAR HYDROLOGIC MODEL
                            VERSION 6.6.2 05/12/2025

   MODFLOW 6 compiled May 24 2025 11:41:46 with Intel(R) Fortran Intel(R) 64
   Compiler Classic for applications running on Intel(R) 64, Version 2021.7.0
                             Build 20220726_000000

This software has been approved for release by the U.S. Geological 
Survey (USGS). Although the software has been subjected to rigorous 
review, the USGS reserves the right to update the software as needed 
pursuant to further analysis and review. No warranty, expressed or 
implied, is made by the USGS or the U.S. Government as to the 
functionality of the software and related material nor shall the 
fact of release constitute any such warranty. Furthermore, the 
software is released on condition that neither the USGS nor the U.S. 
Government shall be held liable for any damages resulting from its 
authorized or unauthorized use. Also refer to the USGS Water 
Resources Software User Rights Notice for complete use, copyright, 
and distribution information.


As a work of the United States Government, this USGS product is 
in the public domain within the United States. You can copy, 
modify, distribute, and perform the work, even for commercial 
purposes, all without asking permission. Additionally, USGS 
waives copyright and related rights in the work worldwide 
through CC0 1.0 Universal Public Domain Dedication 
(https://creativecommons.org/publicdomain/zero/1.0/).

The following GNU Lesser General Public License (LGPL) libraries
are used in this USGS product:

    SPARSKIT version 2.0
      ilut, luson, and qsplit 
      (https://www-users.cse.umn.edu/~saad/software/SPARSKIT/)

    RCM - Reverse Cuthill McKee Ordering
      (https://people.math.sc.edu/Burkardt/f_src/rcm/rcm.html)

    BLAS - Basic Linear Algebra Subprograms Level 1
      (https://people.math.sc.edu/Burkardt/f_src/blas1_d/blas1_d.html)

    SPARSEKIT - Sparse Matrix Utility Package
      amux, dperm, dvperm, rperm, and cperm
      (https://people.sc.fsu.edu/~jburkardt/f77_src/sparsekit/sparsekit.html)

The following BSD-3 License libraries are used in this USGS product:

    Modern Fortran DAG Library
      Copyright (c) 2018, Jacob Williams
      All rights reserved.
      (https://github.com/jacobwilliams/daglib)

MODFLOW 6 compiler options: -Ilinux/obj_mf6 -O2 -no-heap-arrays -fpe0
-traceback -Qdiag-disable:7416 -Qdiag-disable:7025 -Qdiag-disable:5268 -fpp
-module linux/mod_mf6/ -c -o linux/obj_mf6/compilerversion.o

System command used to initiate simulation:
/home/danilopezmella/flopy_expert/bin/mf6

MODFLOW was compiled using uniform precision.

Real Variables
  KIND: 8
  TINY (smallest non-zero value):    2.225074-308
  HUGE (largest value):    1.797693+308
  PRECISION: 15
  SIZE IN BITS: 64

Integer Variables
  KIND: 4
  HUGE (largest value): 2147483647
  SIZE IN BITS: 32

Long Integer Variables
  KIND: 8
  HUGE (largest value): 9223372036854775807
  SIZE IN BITS: 64

Logical Variables
  KIND: 4
  SIZE IN BITS: 32
 

 OPENED mfsim.nam
 FILE TYPE:NAM6               UNIT 1001   STATUS:OLD                 
 FORMAT:FORMATTED              ACCESS:SEQUENTIAL          
 ACTION:READ                

 # File generated by Flopy version 3.9.3 on 08/07/2025 at 00:02:57.

 OPENED sim.tdis
 FILE TYPE:TDIS6              UNIT 1002   STATUS:OLD                 
 FORMAT:FORMATTED              ACCESS:SEQUENTIAL          
 ACTION:READ                

 # File generated by Flopy version 3.9.3 on 08/07/2025 at 00:02:57.

 OPENED tutorial_model.nam
 FILE TYPE:GWF6               UNIT 1003   STATUS:OLD                 
 FORMAT:FORMATTED              ACCESS:SEQUENTIAL          
 ACTION:READ                

 # File generated by Flopy version 3.9.3 on 08/07/2025 at 00:02:57.

 OPENED tutorial_model.dis
 FILE TYPE:DIS6               UNIT 1004   STATUS:OLD                 
 FORMAT:FORMATTED              ACCESS:SEQUENTIAL          
 ACTION:READ                

 # File generated by Flopy version 3.9.3 on 08/07/2025 at 00:02:57.

 OPENED tutorial_model.npf
 FILE TYPE:NPF6               UNIT 1005   STATUS:OLD                 
 FORMAT:FORMATTED              ACCESS:SEQUENTIAL          
 ACTION:READ                

 # File generated by Flopy version 3.9.3 on 08/07/2025 at 00:02:57.

 OPENED tutorial_model.sto
 FILE TYPE:STO6               UNIT 1006   STATUS:OLD                 
 FORMAT:FORMATTED              ACCESS:SEQUENTIAL          
 ACTION:READ                

 # File generated by Flopy version 3.9.3 on 08/07/2025 at 00:02:57.

 OPENED tutorial_model.ic
 FILE TYPE:IC6                UNIT 1007   STATUS:OLD                 
 FORMAT:FORMATTED              ACCESS:SEQUENTIAL          
 ACTION:READ                

 # File generated by Flopy version 3.9.3 on 08/07/2025 at 00:02:57.

 OPENED tutorial_model.oc
 FILE TYPE:OC6       UNIT 1008   STATUS:OLD                 
 FORMAT:FORMATTED              ACCESS:SEQUENTIAL          
 ACTION:READ                


 OPENED tutorial_model.obs
 FILE TYPE:OBS6      UNIT 1009   STATUS:OLD                 
 FORMAT:FORMATTED              ACCESS:SEQUENTIAL          
 ACTION:READ                


 OPENED tutorial_model.wel
 FILE TYPE:WEL6               UNIT 1010   STATUS:OLD                 
 FORMAT:FORMATTED              ACCESS:SEQUENTIAL          
 ACTION:READ                

 # File generated by Flopy version 3.9.3 on 08/07/2025 at 00:02:57.

 OPENED tutorial_model.rcha
 FILE TYPE:RCH6               UNIT 1012   STATUS:OLD                 
 FORMAT:FORMATTED              ACCESS:SEQUENTIAL          
 ACTION:READ                

 # File generated by Flopy version 3.9.3 on 08/07/2025 at 00:02:57.

 OPENED tutorial_model.chd
 FILE TYPE:CHD6               UNIT 1013   STATUS:OLD                 
 FORMAT:FORMATTED              ACCESS:SEQUENTIAL          
 ACTION:READ                

 # File generated by Flopy version 3.9.3 on 08/07/2025 at 00:02:57.
    ALL SIMULATION MEMORY INFORMATION WILL BE WRITTEN.

 READING SIMULATION OPTIONS
    MAXIMUM NUMBER OF ERRORS THAT WILL BE STORED IS 1000
    MEMORY_PRINT_OPTION SET TO "ALL".
 END OF SIMULATION OPTIONS

 READING SIMULATION TIMING

 TDIS -- TEMPORAL DISCRETIZATION PACKAGE,
 VERSION 1 : 11/13/2014 - INPUT READ FROM MEMPATH: __INPUT__/SIM/TDIS                                
 PROCESSING TDIS OPTIONS
    SIMULATION TIME UNIT IS DAYS
 END OF TDIS OPTIONS
 PROCESSING TDIS DIMENSIONS
    3 STRESS PERIOD(S) IN SIMULATION
 END OF TDIS DIMENSIONS
 PROCESSING TDIS PERIODDATA


 STRESS PERIOD     LENGTH       TIME STEPS     MULTIPLIER FOR DELT
 ----------------------------------------------------------------------------
        1         1.000000          1                    1.000
        2         100.0000         10                    1.000
        3         100.0000         10                    1.000
 END OF TDIS PERIODDATA
 END OF SIMULATION TIMING

 READING SIMULATION MODELS
    GWF6 model 1 will be created
 END OF SIMULATION MODELS

 READING SIMULATION EXCHANGES
 END OF SIMULATION EXCHANGES

 READING SOLUTIONGROUP

 Creating solution: SLN_1           

 OPENED sim.ims
 FILE TYPE:IMS   UNIT 1015   STATUS:OLD                 
 FORMAT:FORMATTED              ACCESS:SEQUENTIAL          
 ACTION:READ                

 END OF SOLUTIONGROUP

PROCESSING MODEL CONNECTIONS

 IMS -- ITERATIVE MODEL SOLUTION PACKAGE, VERSION 6, 4/28/2017
         INPUT READ FROM UNIT 1015
 # File generated by Flopy version 3.9.3 on 08/07/2025 at 00:02:57.

 PROCESSING IMS OPTIONS
 SIMPLE OPTION:
 DEFAULT SOLVER INPUT VALUES FOR FAST SOLUTIONS
 END OF IMS OPTIONS

 PROCESSING IMS NONLINEAR
 END OF IMS NONLINEAR DATA
 ***UNDER-RELAXATION WILL NOT BE USED***
 

 PROCESSING LINEAR DATA
 END OF LINEAR DATA
 ***IMS LINEAR SOLVER WILL BE USED***

 IMSLINEAR -- UNSTRUCTURED LINEAR SOLUTION PACKAGE, VERSION 8, 04/28/2017
 An asymmetric matrix will be solved

 OUTER ITERATION CONVERGENCE CRITERION    (DVCLOSE) =    0.100000E-05
 MAXIMUM NUMBER OF OUTER ITERATIONS        (MXITER) = 50
 SOLVER PRINTOUT INDEX                     (IPRIMS) = 1
 NONLINEAR ITERATION METHOD            (NONLINMETH) = 0
 LINEAR SOLUTION METHOD                   (LINMETH) = 1

       SOLUTION BY THE BICONJUGATE-GRADIENT STABILIZED METHOD
 ------------------------------------------------------------------
 MAXIMUM OF 50 CALLS OF SOLUTION ROUTINE
 MAXIMUM OF 100 INTERNAL ITERATIONS PER CALL TO SOLUTION ROUTINE
 LINEAR ACCELERATION METHOD            = BCGS      
 MATRIX PRECONDITIONING TYPE           = MOD. INCOMPLETE LU  
 MATRIX SCALING APPROACH               = NO SCALING          
 MATRIX REORDERING APPROACH            = ORIGINAL ORDERING        
 NUMBER OF ORTHOGONALIZATIONS          = 0
 HEAD CHANGE CRITERION FOR CLOSURE     =    0.10000E-05
 RESIDUAL CHANGE CRITERION FOR CLOSURE =    0.10000E-02
 RESIDUAL CONVERGENCE OPTION           = 0
 RESIDUAL CONVERGENCE NORM             = INFINITY NORM   
 RELAXATION FACTOR                     =    0.97000E+00



 
    Solving:  Stress period:     1    Time step:     1
 
1
 STRESS PERIOD NO. 1, LENGTH =   1.000000    
 ------------------------------------------
 NUMBER OF TIME STEPS = 1
 MULTIPLIER FOR DELT =     1.000
 INITIAL TIME STEP SIZE =   1.000000    



 PSEUDO-TRANSIENT CONTINUATION WILL BE APPLIED TO MODEL 1 ("TUTORIAL_MODEL") DURING THIS TIME STEP

 SLN_1 OUTER ITERATION SUMMARY
 ----------------------------------------------------------------------------------------------------------
                                OUTER      INNER                    STEP   MAXIMUM CHANGE MODEL-(CELLID) OR
 OUTER ITERATION STEP       ITERATION  ITERATION  MAXIMUM CHANGE SUCCESS             MODEL-PACKAGE-(NUMBER)
 ----------------------------------------------------------------------------------------------------------
 Model                              1         12       6.0164626                            1_GWF-(1,10,10)
 Model                              2         12     -0.13488444                            1_GWF-(1,10,10)
 Model                              3          3 -6.99831809E-06                            1_GWF-(3,10,10)
 Model                              4          1 -5.91693195E-08       *                     1_GWF-(3,10,3)
 ----------------------------------------------------------------------------------------------------------


 4 CALLS TO NUMERICAL SOLUTION IN TIME STEP 1 STRESS PERIOD 1
 28 TOTAL ITERATIONS
 
    Solving:  Stress period:     2    Time step:     1
 
1
 STRESS PERIOD NO. 2, LENGTH =   100.0000    
 ------------------------------------------
 NUMBER OF TIME STEPS = 10
 MULTIPLIER FOR DELT =     1.000
 INITIAL TIME STEP SIZE =   10.00000    

 SLN_1 OUTER ITERATION SUMMARY
 ----------------------------------------------------------------------------------------------------------
                                OUTER      INNER                    STEP   MAXIMUM CHANGE MODEL-(CELLID) OR
 OUTER ITERATION STEP       ITERATION  ITERATION  MAXIMUM CHANGE SUCCESS             MODEL-PACKAGE-(NUMBER)
 ----------------------------------------------------------------------------------------------------------
 Model                              1          1 -6.73596625E-08       *                      1_GWF-(1,2,9)
 ----------------------------------------------------------------------------------------------------------


 1 CALLS TO NUMERICAL SOLUTION IN TIME STEP 1 STRESS PERIOD 2
 1 TOTAL ITERATIONS
 
    Solving:  Stress period:     2    Time step:     2
 

 SLN_1 OUTER ITERATION SUMMARY
 ----------------------------------------------------------------------------------------------------------
                                OUTER      INNER                    STEP   MAXIMUM CHANGE MODEL-(CELLID) OR
 OUTER ITERATION STEP       ITERATION  ITERATION  MAXIMUM CHANGE SUCCESS             MODEL-PACKAGE-(NUMBER)
 ----------------------------------------------------------------------------------------------------------
 Model                              1          1 -1.95572315E-08       *                    1_GWF-(2,10,10)
 ----------------------------------------------------------------------------------------------------------


 1 CALLS TO NUMERICAL SOLUTION IN TIME STEP 2 STRESS PERIOD 2
 1 TOTAL ITERATIONS
 
    Solving:  Stress period:     2    Time step:     3
 

 SLN_1 OUTER ITERATION SUMMARY
 ----------------------------------------------------------------------------------------------------------
                                OUTER      INNER                    STEP   MAXIMUM CHANGE MODEL-(CELLID) OR
 OUTER ITERATION STEP       ITERATION  ITERATION  MAXIMUM CHANGE SUCCESS             MODEL-PACKAGE-(NUMBER)
 ----------------------------------------------------------------------------------------------------------
 Model                              1          1 -1.70692764E-08       *                     1_GWF-(3,1,10)
 ----------------------------------------------------------------------------------------------------------


 1 CALLS TO NUMERICAL SOLUTION IN TIME STEP 3 STRESS PERIOD 2
 1 TOTAL ITERATIONS
 
    Solving:  Stress period:     2    Time step:     4
 

 SLN_1 OUTER ITERATION SUMMARY
 ----------------------------------------------------------------------------------------------------------
                                OUTER      INNER                    STEP   MAXIMUM CHANGE MODEL-(CELLID) OR
 OUTER ITERATION STEP       ITERATION  ITERATION  MAXIMUM CHANGE SUCCESS             MODEL-PACKAGE-(NUMBER)
 ----------------------------------------------------------------------------------------------------------
 Model                              1          1 -9.98677907E-09       *                     1_GWF-(1,9,10)
 ----------------------------------------------------------------------------------------------------------


 1 CALLS TO NUMERICAL SOLUTION IN TIME STEP 4 STRESS PERIOD 2
 1 TOTAL ITERATIONS
 
    Solving:  Stress period:     2    Time step:     5
 

 SLN_1 OUTER ITERATION SUMMARY
 ----------------------------------------------------------------------------------------------------------
                                OUTER      INNER                    STEP   MAXIMUM CHANGE MODEL-(CELLID) OR
 OUTER ITERATION STEP       ITERATION  ITERATION  MAXIMUM CHANGE SUCCESS             MODEL-PACKAGE-(NUMBER)
 ----------------------------------------------------------------------------------------------------------
 Model                              1          1 -6.91832036E-09       *                     1_GWF-(3,1,10)
 ----------------------------------------------------------------------------------------------------------


 1 CALLS TO NUMERICAL SOLUTION IN TIME STEP 5 STRESS PERIOD 2
 1 TOTAL ITERATIONS
 
    Solving:  Stress period:     2    Time step:     6
 

 SLN_1 OUTER ITERATION SUMMARY
 ----------------------------------------------------------------------------------------------------------
                                OUTER      INNER                    STEP   MAXIMUM CHANGE MODEL-(CELLID) OR
 OUTER ITERATION STEP       ITERATION  ITERATION  MAXIMUM CHANGE SUCCESS             MODEL-PACKAGE-(NUMBER)
 ----------------------------------------------------------------------------------------------------------
 Model                              1          1 -4.08527023E-09       *                     1_GWF-(1,9,10)
 ----------------------------------------------------------------------------------------------------------


 1 CALLS TO NUMERICAL SOLUTION IN TIME STEP 6 STRESS PERIOD 2
 1 TOTAL ITERATIONS
 
    Solving:  Stress period:     2    Time step:     7
 

 SLN_1 OUTER ITERATION SUMMARY
 ----------------------------------------------------------------------------------------------------------
                                OUTER      INNER                    STEP   MAXIMUM CHANGE MODEL-(CELLID) OR
 OUTER ITERATION STEP       ITERATION  ITERATION  MAXIMUM CHANGE SUCCESS             MODEL-PACKAGE-(NUMBER)
 ----------------------------------------------------------------------------------------------------------
 Model                              1          1 -2.50792775E-09       *                     1_GWF-(3,1,10)
 ----------------------------------------------------------------------------------------------------------


 1 CALLS TO NUMERICAL SOLUTION IN TIME STEP 7 STRESS PERIOD 2
 1 TOTAL ITERATIONS
 
    Solving:  Stress period:     2    Time step:     8
 

 SLN_1 OUTER ITERATION SUMMARY
 ----------------------------------------------------------------------------------------------------------
                                OUTER      INNER                    STEP   MAXIMUM CHANGE MODEL-(CELLID) OR
 OUTER ITERATION STEP       ITERATION  ITERATION  MAXIMUM CHANGE SUCCESS             MODEL-PACKAGE-(NUMBER)
 ----------------------------------------------------------------------------------------------------------
 Model                              1          1 -1.57950242E-09       *                     1_GWF-(1,9,10)
 ----------------------------------------------------------------------------------------------------------


 1 CALLS TO NUMERICAL SOLUTION IN TIME STEP 8 STRESS PERIOD 2
 1 TOTAL ITERATIONS
 
    Solving:  Stress period:     2    Time step:     9
 

 SLN_1 OUTER ITERATION SUMMARY
 ----------------------------------------------------------------------------------------------------------
                                OUTER      INNER                    STEP   MAXIMUM CHANGE MODEL-(CELLID) OR
 OUTER ITERATION STEP       ITERATION  ITERATION  MAXIMUM CHANGE SUCCESS             MODEL-PACKAGE-(NUMBER)
 ----------------------------------------------------------------------------------------------------------
 Model                              1          1 -9.50514667E-10       *                     1_GWF-(3,1,10)
 ----------------------------------------------------------------------------------------------------------


 1 CALLS TO NUMERICAL SOLUTION IN TIME STEP 9 STRESS PERIOD 2
 1 TOTAL ITERATIONS
 
    Solving:  Stress period:     2    Time step:    10
 

 SLN_1 OUTER ITERATION SUMMARY
 ----------------------------------------------------------------------------------------------------------
                                OUTER      INNER                    STEP   MAXIMUM CHANGE MODEL-(CELLID) OR
 OUTER ITERATION STEP       ITERATION  ITERATION  MAXIMUM CHANGE SUCCESS             MODEL-PACKAGE-(NUMBER)
 ----------------------------------------------------------------------------------------------------------
 Model                              1          1 -5.79008841E-10       *                     1_GWF-(1,9,10)
 ----------------------------------------------------------------------------------------------------------


 1 CALLS TO NUMERICAL SOLUTION IN TIME STEP 10 STRESS PERIOD 2
 1 TOTAL ITERATIONS
 
    Solving:  Stress period:     3    Time step:     1
 
1
 STRESS PERIOD NO. 3, LENGTH =   100.0000    
 ------------------------------------------
 NUMBER OF TIME STEPS = 10
 MULTIPLIER FOR DELT =     1.000
 INITIAL TIME STEP SIZE =   10.00000    

 SLN_1 OUTER ITERATION SUMMARY
 ----------------------------------------------------------------------------------------------------------
                                OUTER      INNER                    STEP   MAXIMUM CHANGE MODEL-(CELLID) OR
 OUTER ITERATION STEP       ITERATION  ITERATION  MAXIMUM CHANGE SUCCESS             MODEL-PACKAGE-(NUMBER)
 ----------------------------------------------------------------------------------------------------------
 Model                              1          1 -3.73903131E-10       *                     1_GWF-(3,1,10)
 ----------------------------------------------------------------------------------------------------------


 1 CALLS TO NUMERICAL SOLUTION IN TIME STEP 1 STRESS PERIOD 3
 1 TOTAL ITERATIONS
 
    Solving:  Stress period:     3    Time step:     2
 

 SLN_1 OUTER ITERATION SUMMARY
 ----------------------------------------------------------------------------------------------------------
                                OUTER      INNER                    STEP   MAXIMUM CHANGE MODEL-(CELLID) OR
 OUTER ITERATION STEP       ITERATION  ITERATION  MAXIMUM CHANGE SUCCESS             MODEL-PACKAGE-(NUMBER)
 ----------------------------------------------------------------------------------------------------------
 Model                              1          1 -2.11217932E-10       *                     1_GWF-(3,1,10)
 ----------------------------------------------------------------------------------------------------------


 1 CALLS TO NUMERICAL SOLUTION IN TIME STEP 2 STRESS PERIOD 3
 1 TOTAL ITERATIONS
 
    Solving:  Stress period:     3    Time step:     3
 

 SLN_1 OUTER ITERATION SUMMARY
 ----------------------------------------------------------------------------------------------------------
                                OUTER      INNER                    STEP   MAXIMUM CHANGE MODEL-(CELLID) OR
 OUTER ITERATION STEP       ITERATION  ITERATION  MAXIMUM CHANGE SUCCESS             MODEL-PACKAGE-(NUMBER)
 ----------------------------------------------------------------------------------------------------------
 Model                              1          1 -1.42443168E-10       *                     1_GWF-(3,1,10)
 ----------------------------------------------------------------------------------------------------------


 1 CALLS TO NUMERICAL SOLUTION IN TIME STEP 3 STRESS PERIOD 3
 1 TOTAL ITERATIONS
 
    Solving:  Stress period:     3    Time step:     4
 

 SLN_1 OUTER ITERATION SUMMARY
 ----------------------------------------------------------------------------------------------------------
                                OUTER      INNER                    STEP   MAXIMUM CHANGE MODEL-(CELLID) OR
 OUTER ITERATION STEP       ITERATION  ITERATION  MAXIMUM CHANGE SUCCESS             MODEL-PACKAGE-(NUMBER)
 ----------------------------------------------------------------------------------------------------------
 Model                              1          1 -7.83259013E-11       *                     1_GWF-(3,1,10)
 ----------------------------------------------------------------------------------------------------------


 1 CALLS TO NUMERICAL SOLUTION IN TIME STEP 4 STRESS PERIOD 3
 1 TOTAL ITERATIONS
 
    Solving:  Stress period:     3    Time step:     5
 

 SLN_1 OUTER ITERATION SUMMARY
 ----------------------------------------------------------------------------------------------------------
                                OUTER      INNER                    STEP   MAXIMUM CHANGE MODEL-(CELLID) OR
 OUTER ITERATION STEP       ITERATION  ITERATION  MAXIMUM CHANGE SUCCESS             MODEL-PACKAGE-(NUMBER)
 ----------------------------------------------------------------------------------------------------------
 Model                              1          1 -4.41675585E-11       *                     1_GWF-(3,1,10)
 ----------------------------------------------------------------------------------------------------------


 1 CALLS TO NUMERICAL SOLUTION IN TIME STEP 5 STRESS PERIOD 3
 1 TOTAL ITERATIONS
 
    Solving:  Stress period:     3    Time step:     6
 

 SLN_1 OUTER ITERATION SUMMARY
 ----------------------------------------------------------------------------------------------------------
                                OUTER      INNER                    STEP   MAXIMUM CHANGE MODEL-(CELLID) OR
 OUTER ITERATION STEP       ITERATION  ITERATION  MAXIMUM CHANGE SUCCESS             MODEL-PACKAGE-(NUMBER)
 ----------------------------------------------------------------------------------------------------------
 Model                              1          1 -2.40649722E-11       *                     1_GWF-(2,7,10)
 ----------------------------------------------------------------------------------------------------------


 1 CALLS TO NUMERICAL SOLUTION IN TIME STEP 6 STRESS PERIOD 3
 1 TOTAL ITERATIONS
 
    Solving:  Stress period:     3    Time step:     7
 

 SLN_1 OUTER ITERATION SUMMARY
 ----------------------------------------------------------------------------------------------------------
                                OUTER      INNER                    STEP   MAXIMUM CHANGE MODEL-(CELLID) OR
 OUTER ITERATION STEP       ITERATION  ITERATION  MAXIMUM CHANGE SUCCESS             MODEL-PACKAGE-(NUMBER)
 ----------------------------------------------------------------------------------------------------------
 Model                              1          1 -1.54567470E-11       *                     1_GWF-(2,7,10)
 ----------------------------------------------------------------------------------------------------------


 1 CALLS TO NUMERICAL SOLUTION IN TIME STEP 7 STRESS PERIOD 3
 1 TOTAL ITERATIONS
 
    Solving:  Stress period:     3    Time step:     8
 

 SLN_1 OUTER ITERATION SUMMARY
 ----------------------------------------------------------------------------------------------------------
                                OUTER      INNER                    STEP   MAXIMUM CHANGE MODEL-(CELLID) OR
 OUTER ITERATION STEP       ITERATION  ITERATION  MAXIMUM CHANGE SUCCESS             MODEL-PACKAGE-(NUMBER)
 ----------------------------------------------------------------------------------------------------------
 Model                              1          1 -1.08308917E-11       *                     1_GWF-(2,7,10)
 ----------------------------------------------------------------------------------------------------------


 1 CALLS TO NUMERICAL SOLUTION IN TIME STEP 8 STRESS PERIOD 3
 1 TOTAL ITERATIONS
 
    Solving:  Stress period:     3    Time step:     9
 

 SLN_1 OUTER ITERATION SUMMARY
 ----------------------------------------------------------------------------------------------------------
                                OUTER      INNER                    STEP   MAXIMUM CHANGE MODEL-(CELLID) OR
 OUTER ITERATION STEP       ITERATION  ITERATION  MAXIMUM CHANGE SUCCESS             MODEL-PACKAGE-(NUMBER)
 ----------------------------------------------------------------------------------------------------------
 Model                              1          1 -8.06432698E-12       *                     1_GWF-(2,7,10)
 ----------------------------------------------------------------------------------------------------------


 1 CALLS TO NUMERICAL SOLUTION IN TIME STEP 9 STRESS PERIOD 3
 1 TOTAL ITERATIONS
 
    Solving:  Stress period:     3    Time step:    10
 

 SLN_1 OUTER ITERATION SUMMARY
 ----------------------------------------------------------------------------------------------------------
                                OUTER      INNER                    STEP   MAXIMUM CHANGE MODEL-(CELLID) OR
 OUTER ITERATION STEP       ITERATION  ITERATION  MAXIMUM CHANGE SUCCESS             MODEL-PACKAGE-(NUMBER)
 ----------------------------------------------------------------------------------------------------------
 Model                              1          1 -6.27675689E-12       *                     1_GWF-(2,7,10)
 ----------------------------------------------------------------------------------------------------------


 1 CALLS TO NUMERICAL SOLUTION IN TIME STEP 10 STRESS PERIOD 3
 1 TOTAL ITERATIONS

 DETAILED INFORMATION ON VARIABLES STORED IN THE MEMORY MANAGER
 -----------------------------------------------------------------------------------------------------------------------------------------------------------------------------
 ORIGIN                                             VARIABLE NAME    DATA TYPE             NUMBER OF ITEMS ASSOCIATED VARIABLE                                                
 -----------------------------------------------------------------------------------------------------------------------------------------------------------------------------
 TUTORIAL_MODEL/DIS                                 NODESUSER        INTEGER                             1 --                                                                 
 SLN_1                                              NCOL             INTEGER                             1 --                                                                 
 TUTORIAL_MODEL/STO                                 IPRFLOW          INTEGER                             1 --                                                                 
 TUTORIAL_MODEL/WEL_0                               ISCLOC           INTEGER                             1 --                                                                 
 TUTORIAL_MODEL/NPF                                 IPRPAK           INTEGER                             1 --                                                                 
 TUTORIAL_MODEL/CSUB                                IPRPAK           INTEGER                             1 --                                                                 
 SLN_1/IMSLINEAR                                    ID               INTEGER                           300 --                                                                 
 __INPUT__/TUTORIAL_MODEL/STO                       STORAGE          STRING LEN=300                      1 --                                                                 
 TUTORIAL_MODEL                                     RHS              DOUBLE                            300 SLN_1/RHS                                                          
 TUTORIAL_MODEL/CSUB                                IESLAG           INTEGER                             1 --                                                                 
 TDIS                                               PERTIMSAV        DOUBLE                              1 --                                                                 
 TUTORIAL_MODEL/MVR                                 INEWTON          INTEGER                             1 --                                                                 
 SLN_1/IMSLINEAR                                    WLU              DOUBLE                              1 --                                                                 
 TUTORIAL_MODEL/WEL_0                               IVSC             INTEGER                             1 --                                                                 
 TUTORIAL_MODEL/DIS                                 NODEREDUCED      INTEGER                             1 --                                                                 
 TUTORIAL_MODEL/WEL_0                               AUXVAR           DOUBLE                              0 --                                                                 
 __INPUT__/TUTORIAL_MODEL/CHD_0                     BOUNDNAME        STRING LEN=40                       0 --                                                                 
 TUTORIAL_MODEL/GNC                                 INEWTON          INTEGER                             1 --                                                                 
 SLN_1/IMSLINEAR                                    IW               INTEGER                           300 --                                                                 
 TUTORIAL_MODEL/VSC                                 A2               DOUBLE                              1 --                                                                 
 TUTORIAL_MODEL/MVR                                 PACKAGE_TYPE     STRING LEN=5                        1 --                                                                 
 TUTORIAL_MODEL/VSC                                 A3               DOUBLE                              1 --                                                                 
 TUTORIAL_MODEL/RCHA_0                              ISADVPAK         INTEGER                             1 --                                                                 
 TUTORIAL_MODEL/VSC                                 A4               DOUBLE                              1 --                                                                 
 SLN_1/IMSLINEAR                                    ARO              DOUBLE                              1 --                                                                 
 TDIS                                               TOPERTIM         DOUBLE                              1 --                                                                 
 TUTORIAL_MODEL/GNC                                 INUNIT           INTEGER                             1 --                                                                 
 TUTORIAL_MODEL/STO                                 ICONF_SS         INTEGER                             1 --                                                                 
 TUTORIAL_MODEL/CSUB                                ISPECIFIED_DBH   INTEGER                             1 --                                                                 
 TUTORIAL_MODEL/CHD_0                               INPUT_FNAME      STRING LEN=300                      1 --                                                                 
 __INPUT__/SIM/NAM                                  TDIS6            STRING LEN=300                      1 --                                                                 
 TUTORIAL_MODEL/NPF                                 ID               INTEGER                             1 --                                                                 
 SLN_1/IMSLINEAR                                    JAPC             INTEGER                          1780 --                                                                 
 TUTORIAL_MODEL/CSUB                                ISTRAINIB        INTEGER                             1 --                                                                 
 SLN_1/IMSLINEAR                                    NJAPC            INTEGER                             1 --                                                                 
 TUTORIAL_MODEL/HFB                                 INUNIT           INTEGER                             1 --                                                                 
 __INPUT__/TUTORIAL_MODEL                           NCELLDIM         INTEGER                             1 --                                                                 
 TUTORIAL_MODEL/DIS                                 NODES            INTEGER                             1 --                                                                 
 __INPUT__/TUTORIAL_MODEL/CHD_0                     NCPL             INTEGER                             1 --                                                                 
 __INPUT__/TUTORIAL_MODEL                           NETCDF_GRID      STRING LEN=300                      1 --                                                                 
 TUTORIAL_MODEL/WEL_0                               IPRFLOW          INTEGER                             1 --                                                                 
 TUTORIAL_MODEL/DIS                                 NROW             INTEGER                             1 --                                                                 
 SLN_1                                              BIGCHOLD         DOUBLE                              1 --                                                                 
 __INPUT__/TUTORIAL_MODEL/CHD_0                     IPER             INTEGER                             1 --                                                                 
 SLN_1                                              MATRIX_OFFSET    INTEGER                             1 --                                                                 
 SLN_1/IMSLINEAR                                    JW               INTEGER                             1 --                                                                 
 TDIS                                               ENDOFSIMULATION  LOGICAL                             1 --                                                                 
 TUTORIAL_MODEL/NPF                                 K22INPUT         DOUBLE                              0 --                                                                 
 TUTORIAL_MODEL/NPF                                 NODEKCHANGE      INTEGER                           300 --                                                                 
 TUTORIAL_MODEL/WEL_0                               NAUX             INTEGER                             1 --                                                                 
 SLN_1                                              AMOMENTUM        DOUBLE                              1 --                                                                 
 __INPUT__/TUTORIAL_MODEL/CHD_0                     IONPER           INTEGER                             1 --                                                                 
 TUTORIAL_MODEL/CHD_0                               SIMTOMVR         DOUBLE                              0 --                                                                 
 TUTORIAL_MODEL                                     NEQ              INTEGER                             1 --                                                                 
 TUTORIAL_MODEL/CSUB                                ICELLF           INTEGER                             1 --                                                                 
 SLN_1                                              CONVNMOD         INTEGER                             1 --                                                                 
 TUTORIAL_MODEL/BUY                                 IONPER           INTEGER                             1 --                                                                 
 TUTORIAL_MODEL/WEL_0                               NPAKEQ           INTEGER                             1 --                                                                 
 TUTORIAL_MODEL/IC                                  PACKAGE_TYPE     STRING LEN=5                        1 --                                                                 
 TDIS                                               TOTIMSAV         DOUBLE                              1 --                                                                 
 TUTORIAL_MODEL/RCHA_0                              IVSC             INTEGER                             1 --                                                                 
 TUTORIAL_MODEL/GNC                                 IASYM            INTEGER                             1 --                                                                 
 __INPUT__/TUTORIAL_MODEL/RCHA_0                    BOUNDNAME        STRING LEN=40                       0 --                                                                 
 TUTORIAL_MODEL/MVR                                 IEXGMVR          INTEGER                             1 --                                                                 
 TUTORIAL_MODEL/DIS                                 BOT3D            DOUBLE                            300 --                                                                 
 TUTORIAL_MODEL/BUY                                 IPRPAK           INTEGER                             1 --                                                                 
 __INPUT__/TUTORIAL_MODEL                           NETCDF_FNAME     STRING LEN=300                      1 --                                                                 
 TUTORIAL_MODEL/NPF                                 IPAKCB           INTEGER                             1 --                                                                 
 TUTORIAL_MODEL/CSUB                                IPAKCB           INTEGER                             1 --                                                                 
 TUTORIAL_MODEL/IC                                  IOUT             INTEGER                             1 --                                                                 
 TUTORIAL_MODEL/CHD_0                               AUXVAR_IDM       DOUBLE                              0 __INPUT__/TUTORIAL_MODEL/CHD_0/AUXVAR                              
 __INPUT__/SIM/NAM                                  PRPROF           STRING LEN=300                      1 --                                                                 
 TUTORIAL_MODEL/DIS                                 DELC             DOUBLE                             10 --                                                                 
 TUTORIAL_MODEL/CHD_0                               NCOLBND          INTEGER                             1 --                                                                 
 TUTORIAL_MODEL                                     IPRPAK           INTEGER                             1 --                                                                 
 SLN_1/IMSLINEAR                                    JARO             INTEGER                             1 --                                                                 
 TUTORIAL_MODEL/CSUB                                IASYM            INTEGER                             1 --                                                                 
 TUTORIAL_MODEL/CSUB                                CC_CRIT          DOUBLE                              1 --                                                                 
 TUTORIAL_MODEL                                     INVSC            INTEGER                             1 --                                                                 
 TUTORIAL_MODEL/IC                                  ID               INTEGER                             1 --                                                                 
 TUTORIAL_MODEL/DIS                                 DELR             DOUBLE                             10 --                                                                 
 TUTORIAL_MODEL/RCHA_0                              NAUX             INTEGER                             1 --                                                                 
 SLN_1                                              ISYMMETRIC       INTEGER                             1 --                                                                 
 TUTORIAL_MODEL/CSUB                                ID               INTEGER                             1 --                                                                 
 SLN_1/IMSLINEAR                                    LEVEL            INTEGER                             1 --                                                                 
 TUTORIAL_MODEL/RCHA_0                              INEWTON          INTEGER                             1 --                                                                 
 __INPUT__/TUTORIAL_MODEL/RCHA_0                    INIRCH           INTEGER                             1 --                                                                 
 SLN_1                                              ITERTOT_TIMESTEP INTEGER                             1 --                                                                 
 TUTORIAL_MODEL/MVR                                 IBUDGETOUT       INTEGER                             1 --                                                                 
 TUTORIAL_MODEL/CON                                 NODES            INTEGER                             1 --                                                                 
 TUTORIAL_MODEL/OC                                  IBUDCSV          INTEGER                             1 --                                                                 
 TUTORIAL_MODEL/NPF                                 ICELLAVG         INTEGER                             1 --                                                                 
 SLN_1                                              DVCLOSE          DOUBLE                              1 --                                                                 
 TUTORIAL_MODEL/CHD_0                               IASYM            INTEGER                             1 --                                                                 
 SLN_1/IMSLINEAR                                    ISCL             INTEGER                             1 --                                                                 
 TUTORIAL_MODEL/DIS                                 YORIGIN          DOUBLE                              1 --                                                                 
 TUTORIAL_MODEL/NPF                                 HDRY             DOUBLE                              1 --                                                                 
 TUTORIAL_MODEL/BUY                                 IPRFLOW          INTEGER                             1 --                                                                 
 TUTORIAL_MODEL/IC                                  STRT             DOUBLE                            300 --                                                                 
 __INPUT__/SIM/NAM                                  HPC6_FILENAME    STRING LEN=300                      0 --                                                                 
 TUTORIAL_MODEL/NPF                                 LASTONPER        INTEGER                             1 --                                                                 
 TUTORIAL_MODEL/GNC                                 NEXG             INTEGER                             1 --                                                                 
 SLN_1                                              HCHOLD           DOUBLE                              0 --                                                                 
 SLN_1/IMSLINEAR                                    QHAT             DOUBLE                            300 --                                                                 
 __INPUT__/SIM/NAM                                  PRINT_INPUT      INTEGER                             1 --                                                                 
 TUTORIAL_MODEL/NPF                                 IWETDRY          INTEGER                             1 --                                                                 
 SLN_1                                              MXITER           INTEGER                             1 --                                                                 
 SLN_1                                              ATSFRAC          DOUBLE                              1 --                                                                 
 TUTORIAL_MODEL/CSUB                                GAMMAW           DOUBLE                              1 --                                                                 
 TUTORIAL_MODEL/NPF                                 ANGLE1           DOUBLE                              0 --                                                                 
 __INPUT__/TUTORIAL_MODEL/CHD_0                     IPAKCB           INTEGER                             1 --                                                                 
 TUTORIAL_MODEL/NPF                                 ANGLE2           DOUBLE                              0 --                                                                 
 TUTORIAL_MODEL/CHD_0                               SIMVALS          DOUBLE                             30 --                                                                 
 TUTORIAL_MODEL/NPF                                 ANGLE3           DOUBLE                              0 --                                                                 
 __INPUT__/TUTORIAL_MODEL/DIS                       NCOL             INTEGER                             1 --                                                                 
 TDIS                                               PERTIM           DOUBLE                              1 --                                                                 
 TUTORIAL_MODEL/WEL_0                               CELLID           INTEGER                             3 __INPUT__/TUTORIAL_MODEL/WEL_0/CELLID                              
 __INPUT__/SIM/NAM                                  SLNTYPE          STRING LEN=300                      1 --                                                                 
 TUTORIAL_MODEL/MVR                                 NMVR             INTEGER                             1 --                                                                 
 TUTORIAL_MODEL/BUY                                 IPAKCB           INTEGER                             1 --                                                                 
 TUTORIAL_MODEL/WEL_0                               INOBSPKG         INTEGER                             1 --                                                                 
 SLN_1                                              PTCDEL0          DOUBLE                              1 --                                                                 
 TUTORIAL_MODEL/CHD_0                               HCOF             DOUBLE                             30 --                                                                 
 __INPUT__/SIM                                      NUMEXCHANGES     INTEGER                             1 --                                                                 
 TUTORIAL_MODEL/CSUB                                NINTERBEDS       INTEGER                             1 --                                                                 
 SLN_1                                              IOUTTOT_TIMESTEP INTEGER                             1 --                                                                 
 TUTORIAL_MODEL/NPF                                 WETFCT           DOUBLE                              1 --                                                                 
 TUTORIAL_MODEL/OC                                  INUNIT           INTEGER                             1 --                                                                 
 TUTORIAL_MODEL/CON                                 IAUSR            INTEGER                             1 --                                                                 
 SLN_1/IMSLINEAR                                    ITER1            INTEGER                             1 --                                                                 
 TUTORIAL_MODEL/DIS                                 IOUT             INTEGER                             1 --                                                                 
 TUTORIAL_MODEL/CON                                 JAS              INTEGER                          1780 --                                                                 
 TUTORIAL_MODEL/NPF                                 IBOTNODE         INTEGER                             0 --                                                                 
 TUTORIAL_MODEL/CHD_0                               ISADVPAK         INTEGER                             1 --                                                                 
 TUTORIAL_MODEL                                     IPAKCB           INTEGER                             1 --                                                                 
 SLN_1/IMSLINEAR                                    ILINMETH         INTEGER                             1 --                                                                 
 TUTORIAL_MODEL/WEL_0                               NBOUND           INTEGER                             1 --                                                                 
 TUTORIAL_MODEL/CSUB                                IOUTZDISP        INTEGER                             1 --                                                                 
 TUTORIAL_MODEL/WEL_0                               LISTLABEL        STRING LEN=500                      1 --                                                                 
 TUTORIAL_MODEL                                     NAME             STRING LEN=16                       1 --                                                                 
 TUTORIAL_MODEL/CHD_0                               ISCLOC           INTEGER                             1 --                                                                 
 TUTORIAL_MODEL/WEL_0                               PACKAGE_TYPE     STRING LEN=5                        1 --                                                                 
 TUTORIAL_MODEL/DIS                                 BOT              DOUBLE                            300 --                                                                 
 TUTORIAL_MODEL/HFB                                 MAXHFB           INTEGER                             1 --                                                                 
 TUTORIAL_MODEL/NPF                                 IK22OVERK        INTEGER                             1 --                                                                 
 SLN_1/IMSLINEAR                                    IAPC             INTEGER                           301 --                                                                 
 TUTORIAL_MODEL                                     NJA              INTEGER                             1 --                                                                 
 SLN_1/IMSLINEAR                                    NIAPC            INTEGER                             1 --                                                                 
 TUTORIAL_MODEL/NPF                                 INUNIT           INTEGER                             1 --                                                                 
 TUTORIAL_MODEL/CSUB                                INUNIT           INTEGER                             1 --                                                                 
 TUTORIAL_MODEL/NPF                                 CONDSAT          DOUBLE                            740 --                                                                 
 TUTORIAL_MODEL/MVR                                 IMODELNAMES      INTEGER                             1 --                                                                 
 TUTORIAL_MODEL/DIS                                 XORIGIN          DOUBLE                              1 --                                                                 
 TMPSLN_1                                           DRMAX            DOUBLE                              1 --                                                                 
 TUTORIAL_MODEL/RCHA_0                              NOUPDATEAUXVAR   INTEGER                             0 --                                                                 
 SLN_1                                              HNCG             DOUBLE                             50 --                                                                 
 TUTORIAL_MODEL/NPF                                 ICELLTYPE        INTEGER                           300 --                                                                 
 TUTORIAL_MODEL/RCHA_0                              NCOLBND          INTEGER                             1 --                                                                 
 TUTORIAL_MODEL/CHD_0                               AUXVAR           DOUBLE                              0 --                                                                 
 TUTORIAL_MODEL/DIS                                 IDOMAIN          INTEGER                           300 --                                                                 
 SLN_1/IMSLINEAR                                    NITERC           INTEGER                             1 --                                                                 
 TUTORIAL_MODEL/CHD_0                               AUXNAME          STRING LEN=16                       0 --                                                                 
 TUTORIAL_MODEL/STO                                 ID               INTEGER                             1 --                                                                 
 TUTORIAL_MODEL/RCHA_0                              BOUND            DOUBLE                              0 --                                                                 
 TUTORIAL_MODEL/NPF                                 ITHICKSTRT       INTEGER                             1 --                                                                 
 TUTORIAL_MODEL/WEL_0                               IAUXMULTCOL      INTEGER                             1 --                                                                 
 TUTORIAL_MODEL/RCHA_0                              ISCLOC           INTEGER                             1 --                                                                 
 SLN_1                                              INNERTOT_SIM     INTEGER                             1 --                                                                 
 TUTORIAL_MODEL/NPF                                 INVSC            INTEGER                             1 --                                                                 
 TUTORIAL_MODEL                                     INHFB            INTEGER                             1 --                                                                 
 TUTORIAL_MODEL/HFB                                 IVSC             INTEGER                             1 --                                                                 
 __INPUT__/SIM/TDIS                                 NSTP             INTEGER                             3 --                                                                 
 __INPUT__/TUTORIAL_MODEL/RCHA_0                    IONPER           INTEGER                             1 --                                                                 
 __INPUT__/TUTORIAL_MODEL/NPF                       ISAVSPDIS        INTEGER                             1 --                                                                 
 __INPUT__/TUTORIAL_MODEL/IC                        STRT             DOUBLE                            300 --                                                                 
 TUTORIAL_MODEL/WEL_0                               IBCNUM           INTEGER                             1 --                                                                 
 TUTORIAL_MODEL/WEL_0                               ID               INTEGER                             1 --                                                                 
 TUTORIAL_MODEL/RCHA_0                              AUXVAR           DOUBLE                              0 --                                                                 
 TUTORIAL_MODEL/RCHA_0                              INPUT_FNAME      STRING LEN=300                      1 --                                                                 
 TUTORIAL_MODEL/BUY                                 INPUT_FNAME      STRING LEN=300                      1 --                                                                 
 TUTORIAL_MODEL/RCHA_0                              PACKAGE_TYPE     STRING LEN=5                        1 --                                                                 
 TUTORIAL_MODEL/CHD_0                               PACKAGE_TYPE     STRING LEN=5                        1 --                                                                 
 TUTORIAL_MODEL/CON                                 NJAS             INTEGER                             1 --                                                                 
 TUTORIAL_MODEL/BUY                                 DENSEREF         DOUBLE                              1 --                                                                 
 TUTORIAL_MODEL/WEL_0                               FLOWRED          DOUBLE                              1 --                                                                 
 SLN_1/IMSLINEAR                                    NJA              INTEGER                             1 --                                                                 
 TUTORIAL_MODEL                                     INSTO            INTEGER                             1 --                                                                 
 TUTORIAL_MODEL/NPF                                 PROPSEDGE        DOUBLE                              0 --                                                                 
 TUTORIAL_MODEL/CHD_0                               NPAKEQ           INTEGER                             1 --                                                                 
 TUTORIAL_MODEL/CHD_0                               IAUXMULTCOL      INTEGER                             1 --                                                                 
 TUTORIAL_MODEL/RCHA_0                              SIMVALS          DOUBLE                            100 --                                                                 
 SLN_1/IMSLINEAR                                    RELAX            DOUBLE                              1 --                                                                 
 SLN_1/IMSLINEAR                                    IARO             INTEGER                             2 --                                                                 
 TUTORIAL_MODEL/NPF                                 K33INPUT         DOUBLE                              0 --                                                                 
 TUTORIAL_MODEL/XT3D                                NUMEXTNBRS       INTEGER                             1 --                                                                 
 TUTORIAL_MODEL/XT3D                                LDISPERSION      LOGICAL                             1 --                                                                 
 TUTORIAL_MODEL/BUY                                 INUNIT           INTEGER                             1 --                                                                 
 TUTORIAL_MODEL/GNC                                 IMPLICIT         LOGICAL                             1 --                                                                 
 __INPUT__/TUTORIAL_MODEL/CHD_0                     NAUX             INTEGER                             1 --                                                                 
 TUTORIAL_MODEL/NPF                                 NEDGES           INTEGER                             1 --                                                                 
 TUTORIAL_MODEL/VSC                                 ID               INTEGER                             1 --                                                                 
 TUTORIAL_MODEL/HFB                                 INEWTON          INTEGER                             1 --                                                                 
 SLN_1/IMSLINEAR                                    NJW              INTEGER                             1 --                                                                 
 TUTORIAL_MODEL/VSC                                 PACKAGE_TYPE     STRING LEN=5                        1 --                                                                 
 TUTORIAL_MODEL/CON                                 NJA              INTEGER                             1 --                                                                 
 TMPSLN_1                                           CONVNMOD         INTEGER                             1 --                                                                 
 TUTORIAL_MODEL/STO                                 ICONVERT         INTEGER                           300 --                                                                 
 __INPUT__/TUTORIAL_MODEL/CHD_0                     MAXBOUND         INTEGER                             1 --                                                                 
 TUTORIAL_MODEL/GNC                                 I2KN             LOGICAL                             1 --                                                                 
 TUTORIAL_MODEL/NPF                                 EDGEIDXS         INTEGER                             0 --                                                                 
 TUTORIAL_MODEL/RCHA_0                              NPAKEQ           INTEGER                             1 --                                                                 
 TUTORIAL_MODEL/CSUB                                SATOMEGA         DOUBLE                              1 --                                                                 
 TUTORIAL_MODEL/NPF                                 HNOFLO           DOUBLE                              1 --                                                                 
 SIM                                                LOADMASK         INTEGER                             1 --                                                                 
 TUTORIAL_MODEL/NPF                                 ISAVSAT          INTEGER                             1 --                                                                 
 SLN_1/IMSLINEAR                                    DVCLOSE          DOUBLE                              1 --                                                                 
 TUTORIAL_MODEL/CHD_0                               ID               INTEGER                             1 --                                                                 
 SLN_1                                              RES_PREV         DOUBLE                              1 --                                                                 
 SLN_1/IMSLINEAR                                    DSCALE           DOUBLE                              1 --                                                                 
 TUTORIAL_MODEL/DIS                                 NOGRB            INTEGER                             1 --                                                                 
 SLN_1/IMSLINEAR                                    ICNVGOPT         INTEGER                             1 --                                                                 
 SLN_1/IMSLINEAR                                    PHAT             DOUBLE                            300 --                                                                 
 __INPUT__/SIM/NAM                                  EXGMEMPATHS      STRING LEN=50                       0 --                                                                 
 TUTORIAL_MODEL/GNC                                 SMGNC            LOGICAL                             1 --                                                                 
 TUTORIAL_MODEL/CON                                 IANGLEX          INTEGER                             1 --                                                                 
 TUTORIAL_MODEL/CSUB                                EPSILON          DOUBLE                              1 --                                                                 
 TUTORIAL_MODEL/CHD_0                               IPRFLOW          INTEGER                             1 --                                                                 
 TUTORIAL_MODEL                                     INNPF            INTEGER                             1 --                                                                 
 TUTORIAL_MODEL/CSUB                                LISTLABEL        STRING LEN=500                      1 --                                                                 
 SLN_1/IMSLINEAR                                    DHAT             DOUBLE                            300 --                                                                 
 TUTORIAL_MODEL/RCHA_0                              LISTLABEL        STRING LEN=500                      1 --                                                                 
 TDIS                                               ITMUNI           INTEGER                             1 --                                                                 
 TUTORIAL_MODEL/CSUB                                INOBSPKG         INTEGER                             1 --                                                                 
 TDIS                                               KSTP             INTEGER                             1 --                                                                 
 SLN_1                                              L2NORM0          DOUBLE                              1 --                                                                 
 TUTORIAL_MODEL/CSUB                                IOUTCOMPE        INTEGER                             1 --                                                                 
 SLN_1                                              IPTCOPT          INTEGER                             1 --                                                                 
 TDIS                                               PERLEN           DOUBLE                              3 --                                                                 
 TUTORIAL_MODEL/CSUB                                IOUTCOMPI        INTEGER                             1 --                                                                 
 TUTORIAL_MODEL/WEL_0                               AUXVAR_IDM       DOUBLE                              0 __INPUT__/TUTORIAL_MODEL/WEL_0/AUXVAR                              
 TUTORIAL_MODEL/MVR                                 IPRFLOW          INTEGER                             1 --                                                                 
 __INPUT__/TUTORIAL_MODEL/RCHA_0                    IPAKCB           INTEGER                             1 --                                                                 
 TUTORIAL_MODEL/IC                                  INPUT_FNAME      STRING LEN=300                      1 --                                                                 
 TUTORIAL_MODEL/WEL_0                               MAXBOUND         INTEGER                             1 --                                                                 
 TUTORIAL_MODEL/RCHA_0                              NODELIST         INTEGER                           100 --                                                                 
 TUTORIAL_MODEL                                     ICNVG            INTEGER                             1 --                                                                 
 __INPUT__/SIM/NAM                                  MFNAME           STRING LEN=300                      1 --                                                                 
 TUTORIAL_MODEL/NPF                                 INEWTON          INTEGER                             1 --                                                                 
 TUTORIAL_MODEL/NPF                                 IHCEDGE          INTEGER                             0 --                                                                 
 TUTORIAL_MODEL/GNC                                 IPRFLOW          INTEGER                             1 --                                                                 
 TUTORIAL_MODEL/CSUB                                IOUTCOMPS        INTEGER                             1 --                                                                 
 TUTORIAL_MODEL/CSUB                                ISTRAINSK        INTEGER                             1 --                                                                 
 TUTORIAL_MODEL/MVR                                 MAXMVR           INTEGER                             1 --                                                                 
 TUTORIAL_MODEL/RCHA_0                              AUXNAME          STRING LEN=16                       0 --                                                                 
 SLN_1                                              PTCDEL           DOUBLE                              1 --                                                                 
 TUTORIAL_MODEL/RCHA_0                              BOUNDNAME_CST    STRING LEN=40                       0 --                                                                 
 TUTORIAL_MODEL/WEL_0                               IOUT             INTEGER                             1 --                                                                 
 SLN_1                                              X                DOUBLE                            300 --                                                                 
 __INPUT__/TUTORIAL_MODEL                           DISENUM          INTEGER                             1 --                                                                 
 TUTORIAL_MODEL/CHD_0                               CELLID           INTEGER                            90 __INPUT__/TUTORIAL_MODEL/CHD_0/CELLID                              
 __INPUT__/TUTORIAL_MODEL                           PKGTYPES         STRING LEN=7                        9 --                                                                 
 TUTORIAL_MODEL/CSUB                                INPUT_FNAME      STRING LEN=300                      1 --                                                                 
 TUTORIAL_MODEL/NPF                                 INPUT_FNAME      STRING LEN=300                      1 --                                                                 
 SLN_1                                              BTOL             DOUBLE                              1 --                                                                 
 TUTORIAL_MODEL/CSUB                                IPCH             INTEGER                             1 --                                                                 
 TUTORIAL_MODEL/BUY                                 IASYM            INTEGER                             1 --                                                                 
 SLN_1                                              AMAT             DOUBLE                           1780 --                                                                 
 TUTORIAL_MODEL/DIS                                 NDIM             INTEGER                             1 --                                                                 
 TUTORIAL_MODEL/CON                                 ANGLEX           DOUBLE                            740 --                                                                 
 TUTORIAL_MODEL/STO                                 INTVS            INTEGER                             1 --                                                                 
 TUTORIAL_MODEL/CHD_0                               LISTLABEL        STRING LEN=500                      1 --                                                                 
 SLN_1/IMSLINEAR                                    EPFACT           DOUBLE                              1 --                                                                 
 SLN_1/IMSLINEAR                                    IACPC            INTEGER                             1 --                                                                 
 TUTORIAL_MODEL                                     IBOUND           INTEGER                           300 SLN_1/IBOUND                                                       
 SLN_1                                              LRCH             INTEGER                           150 --                                                                 
 TUTORIAL_MODEL/WEL_0                               IOFFSET          INTEGER                             1 --                                                                 
 __INPUT__/SIM/NAM                                  MAXERRORS        INTEGER                             1 --                                                                 
 __INPUT__/TUTORIAL_MODEL/DIS                       NLAY             INTEGER                             1 --                                                                 
 TUTORIAL_MODEL/BUY                                 PACKAGE_TYPE     STRING LEN=5                        1 --                                                                 
 TUTORIAL_MODEL/RCHA_0                              CELLID           INTEGER                             0 __INPUT__/TUTORIAL_MODEL/RCHA_0/CELLID                             
 TUTORIAL_MODEL/CSUB                                INEWTON          INTEGER                             1 --                                                                 
 TUTORIAL_MODEL/CHD_0                               NBOUND           INTEGER                             1 --                                                                 
 TUTORIAL_MODEL/DIS                                 LENUNI           INTEGER                             1 --                                                                 
 TDIS                                               TOTIM            DOUBLE                              1 --                                                                 
 __INPUT__/TUTORIAL_MODEL/STO                       IONPER           INTEGER                             1 --                                                                 
 TUTORIAL_MODEL/CHD_0                               IVSC             INTEGER                             1 --                                                                 
 TDIS                                               ENDOFPERIOD      LOGICAL                             1 --                                                                 
 TUTORIAL_MODEL/CON                                 HWVA             DOUBLE                            740 --                                                                 
 TUTORIAL_MODEL                                     INIC             INTEGER                             1 --                                                                 
 TUTORIAL_MODEL/NPF                                 IK33OVERK        INTEGER                             1 --                                                                 
 TUTORIAL_MODEL/NPF                                 INTVK            INTEGER                             1 --                                                                 
 TUTORIAL_MODEL/CSUB                                GWFISS0          INTEGER                             1 --                                                                 
 TUTORIAL_MODEL/RCHA_0                              IOUT             INTEGER                             1 --                                                                 
 TUTORIAL_MODEL/RCHA_0                              AUXVAR_IDM       DOUBLE                              0 __INPUT__/TUTORIAL_MODEL/RCHA_0/AUXVAR                             
 TUTORIAL_MODEL/WEL_0                               IMOVER           INTEGER                             1 --                                                                 
 TUTORIAL_MODEL/CON                                 IHC              INTEGER                           740 --                                                                 
 SIM                                                MODELRANKS       INTEGER                             1 --                                                                 
[...]
 SLN_1                                              IA               INTEGER                           301 --                                                                 
 TUTORIAL_MODEL/XT3D                                INUNIT           INTEGER                             1 --                                                                 
 SLN_1                                              ID               INTEGER                             1 --                                                                 
 __INPUT__/SIM/NAM                                  PRMEM            STRING LEN=300                      1 --                                                                 
 TUTORIAL_MODEL/IC                                  IPRFLOW          INTEGER                             1 --                                                                 
 TUTORIAL_MODEL/CHD_0                               INUNIT           INTEGER                             1 --                                                                 
 TUTORIAL_MODEL                                     INOBS            INTEGER                             1 --                                                                 
 __INPUT__/TUTORIAL_MODEL/DIS                       BOTM             DOUBLE                            300 --                                                                 
 TUTORIAL_MODEL/MVR                                 INUNIT           INTEGER                             1 --                                                                 
 TDIS                                               READNEWDATA      LOGICAL                             1 --                                                                 
 TUTORIAL_MODEL/MVR                                 LASTONPER        INTEGER                             1 --                                                                 
 SLN_1                                              NJA              INTEGER                             1 --                                                                 
 TUTORIAL_MODEL/HFB                                 IASYM            INTEGER                             1 --                                                                 
 TUTORIAL_MODEL                                     MOFFSET          INTEGER                             1 --                                                                 
 SLN_1                                              IU               INTEGER                             1 --                                                                 
 TUTORIAL_MODEL/GNC                                 LASTONPER        INTEGER                             1 --                                                                 
 TUTORIAL_MODEL/WEL_0                               SIMVALS          DOUBLE                              1 --                                                                 
 TUTORIAL_MODEL/DIS                                 TOP2D            DOUBLE                            100 --                                                                 
 TUTORIAL_MODEL/DIS                                 AREA             DOUBLE                            300 --                                                                 
 TUTORIAL_MODEL/GNC                                 ID               INTEGER                             1 --                                                                 
 SLN_1                                              JA               INTEGER                          1780 --                                                                 
 __INPUT__/SIM/TDIS                                 TSMULT           DOUBLE                              3 --                                                                 
 __INPUT__/TUTORIAL_MODEL/WEL_0                     NAUX             INTEGER                             1 --                                                                 
 __INPUT__/SIM/TDIS                                 NPER             INTEGER                             1 --                                                                 
 TUTORIAL_MODEL/MVR                                 MAXPACKAGES      INTEGER                             1 --                                                                 
 TUTORIAL_MODEL/WEL_0                               RHS              DOUBLE                              1 --                                                                 
 TUTORIAL_MODEL/WEL_0                               IOUTAFRCSV       INTEGER                             1 --                                                                 
 TUTORIAL_MODEL/VSC                                 NVISCSPECIES     INTEGER                             1 --                                                                 
 TUTORIAL_MODEL/MVR                                 IOUT             INTEGER                             1 --                                                                 
 TUTORIAL_MODEL                                     ID               INTEGER                             1 --                                                                 
 __INPUT__/TUTORIAL_MODEL                           MEMPATHS         STRING LEN=50                       9 --                                                                 
 TUTORIAL_MODEL/DIS                                 ANGROT           DOUBLE                              1 --                                                                 
 TUTORIAL_MODEL/RCHA_0                              SIMTOMVR         DOUBLE                              0 --                                                                 
 TUTORIAL_MODEL/RCHA_0                              INUNIT           INTEGER                             1 --                                                                 
 TUTORIAL_MODEL/DIS                                 NJAS             INTEGER                             1 --                                                                 
 SLN_1                                              AKAPPA           DOUBLE                              1 --                                                                 
 TUTORIAL_MODEL                                     X                DOUBLE                            300 SLN_1/X                                                            
 TUTORIAL_MODEL/CHD_0                               NOUPDATEAUXVAR   INTEGER                             0 --                                                                 
 SLN_1                                              PTCEXP           DOUBLE                              1 --                                                                 
 TUTORIAL_MODEL/GNC                                 IPAKCB           INTEGER                             1 --                                                                 
 TUTORIAL_MODEL/CSUB                                LASTONPER        INTEGER                             1 --                                                                 
 __INPUT__/SIM/NAM                                  EXGTYPE          STRING LEN=300                      0 --                                                                 
 SLN_1                                              RES_LIM          DOUBLE                              1 --                                                                 
 TUTORIAL_MODEL/RCHA_0                              LASTONPER        INTEGER                             1 --                                                                 
 SLN_1                                              THETA            DOUBLE                              1 --                                                                 
 TMPSLN_1                                           CONVLOCDR        INTEGER                             1 --                                                                 
 TUTORIAL_MODEL/VSC                                 LASTONPER        INTEGER                             1 --                                                                 
 __INPUT__/SIM/NAM                                  MXITER           INTEGER                             1 --                                                                 
 TUTORIAL_MODEL/DIS                                 MSHAPE           INTEGER                             3 --                                                                 
 TMPSLN_1                                           CONVLOCDV        INTEGER                             1 --                                                                 
 SLN_1/IMSLINEAR                                    D                DOUBLE                            300 --                                                                 
 __INPUT__/SIM/NAM                                  CONTINUE         INTEGER                             1 --                                                                 
 TUTORIAL_MODEL/VSC                                 IDXTMPR          INTEGER                             1 --                                                                 
 TUTORIAL_MODEL/HFB                                 IPAKCB           INTEGER                             1 --                                                                 
 SLN_1/IMSLINEAR                                    NJLU             INTEGER                             1 --                                                                 
 __INPUT__/TUTORIAL_MODEL/WEL_0                     INPUT_FNAME      STRING LEN=300                      1 --                                                                 
 TUTORIAL_MODEL/WEL_0                               NODELIST         INTEGER                             1 --                                                                 
 TUTORIAL_MODEL/STO                                 INTEGRATECHANGES INTEGER                             1 --                                                                 
 TUTORIAL_MODEL/BUY                                 IREADCONCBUY     INTEGER                             1 --                                                                 
 TUTORIAL_MODEL/CHD_0                               MAXBOUND         INTEGER                             1 --                                                                 
 TUTORIAL_MODEL/WEL_0                               IASYM            INTEGER                             1 --                                                                 
 SLN_1/IMSLINEAR                                    P                DOUBLE                            300 --                                                                 
 SLN_1/IMSLINEAR                                    Q                DOUBLE                            300 --                                                                 
 TUTORIAL_MODEL/BUY                                 IOUTDENSE        INTEGER                             1 --                                                                 
 TUTORIAL_MODEL/RCHA_0                              CONDINPUT        DOUBLE                              0 --                                                                 
 TUTORIAL_MODEL/MVR                                 MAXCOMB          INTEGER                             1 --                                                                 
 SLN_1/IMSLINEAR                                    T                DOUBLE                            300 --                                                                 
 SLN_1/IMSLINEAR                                    V                DOUBLE                            300 --                                                                 
 SLN_1/IMSLINEAR                                    W                DOUBLE                            300 --                                                                 
 SLN_1/IMSLINEAR                                    APC              DOUBLE                           1780 --                                                                 
 SLN_1/IMSLINEAR                                    Z                DOUBLE                            300 --                                                                 
 SLN_1/IMSLINEAR                                    DSCALE2          DOUBLE                              1 --                                                                 
 TUTORIAL_MODEL                                     INBUY            INTEGER                             1 --                                                                 
 TUTORIAL_MODEL/RCHA_0                              AUXNAME_CST      STRING LEN=16                       0 --                                                                 
 __INPUT__/TUTORIAL_MODEL/WEL_0                     IPAKCB           INTEGER                             1 --                                                                 
 TUTORIAL_MODEL/WEL_0                               AUXNAME          STRING LEN=16                       0 --                                                                 
 __INPUT__/TUTORIAL_MODEL/CHD_0                     INPUT_FNAME      STRING LEN=300                      1 --                                                                 
 __INPUT__/TUTORIAL_MODEL/RCHA_0                    CELLID           INTEGER                             0 --                                                                 
 TUTORIAL_MODEL                                     INEWTONUR        INTEGER                             1 --                                                                 
 __INPUT__/SIM/NAM                                  MTYPE            STRING LEN=300                      1 --                                                                 
 TUTORIAL_MODEL/NPF                                 SATOMEGA         DOUBLE                              1 --                                                                 
 TUTORIAL_MODEL/CSUB                                INITIALIZED      INTEGER                             1 --                                                                 
 SLN_1                                              GAMMA            DOUBLE                              1 --                                                                 
 __INPUT__/TUTORIAL_MODEL/RCHA_0                    INPUT_FNAME      STRING LEN=300                      1 --                                                                 
 TUTORIAL_MODEL                                     XOLD             DOUBLE                            300 --                                                                 
 TUTORIAL_MODEL/CHD_0                               LASTONPER        INTEGER                             1 --                                                                 
 SLN_1                                              XTEMP            DOUBLE                            300 --                                                                 
 TUTORIAL_MODEL/BUY                                 LASTONPER        INTEGER                             1 --                                                                 
 TUTORIAL_MODEL/VSC                                 IOUTVISC         INTEGER                             1 --                                                                 
 __INPUT__/TUTORIAL_MODEL/RCHA_0                    READASARRAYS     INTEGER                             1 --                                                                 
 SLN_1/IMSLINEAR                                    DROPTOL          DOUBLE                              1 --                                                                 
 __INPUT__/SIM/NAM                                  SOLUTIONGROUPNUM INTEGER                             1 --                                                                 
 __INPUT__/SIM                                      NUMMODELS        INTEGER                             1 --                                                                 
 TUTORIAL_MODEL/CSUB                                IOUT             INTEGER                             1 --                                                                 
 TDIS                                               KPER             INTEGER                             1 --                                                                 
 TMPSLN_1                                           NITERMAX         INTEGER                             1 --                                                                 
 SLN_1/IMSLINEAR                                    NIABCGS          INTEGER                             1 --                                                                 
 TUTORIAL_MODEL/NPF                                 IONPER           INTEGER                             1 --                                                                 
 TUTORIAL_MODEL/CSUB                                IONPER           INTEGER                             1 --                                                                 
 TUTORIAL_MODEL/CHD_0                               CONDINPUT        DOUBLE                              0 --                                                                 
 TUTORIAL_MODEL/RCHA_0                              ID               INTEGER                             1 --                                                                 
 __INPUT__/TUTORIAL_MODEL/RCHA_0                    NBOUND           INTEGER                             1 --                                                                 
 TUTORIAL_MODEL/NPF                                 IWETIT           INTEGER                             1 --                                                                 
 TUTORIAL_MODEL/CHD_0                               INEWTON          INTEGER                             1 --                                                                 
 SLN_1                                              TTFORM           DOUBLE                              1 --                                                                 
 __INPUT__/TUTORIAL_MODEL/RCHA_0                    NAUX             INTEGER                             1 --                                                                 
 TUTORIAL_MODEL                                     IDXGLO           INTEGER                          1780 --                                                                 
 TUTORIAL_MODEL/WEL_0                               INPUT_FNAME      STRING LEN=300                      1 --                                                                 
 TUTORIAL_MODEL/CON                                 JAUSR            INTEGER                             1 --                                                                 
 -----------------------------------------------------------------------------------------------------------------------------------------------------------------------------



 MEMORY MANAGER TOTAL STORAGE BY DATA TYPE, IN KILOBYTES
 -------------------------------
                    ALLOCATED   
 DATA TYPE           MEMORY     
 -------------------------------
 Character        9.9890000     
 Logical          4.80000000E-02
 Integer          67.600000     
 Real             175.64000     
 -------------------------------
 Total            253.27700     
 Virtual          0.0000000     
 -------------------------------


 
 Run end date and time (yyyy/mm/dd hh:mm:ss): 2025/08/07  0:02:57
 Elapsed run time:  0.036 Seconds
 Normal termination of simulation.
