                                   MODFLOW 6
                U.S. GEOLOGICAL SURVEY MODULAR HYDROLOGIC MODEL
                          GROUNDWATER FLOW MODEL (GWF)
                            VERSION 6.6.2 05/12/2025

   MODFLOW 6 compiled May 24 2025 11:41:46 with Intel(R) Fortran Intel(R) 64
   Compiler Classic for applications running on Intel(R) 64, Version 2021.7.0
                             Build 20220726_000000

This software has been approved for release by the U.S. Geological 
Survey (USGS). Although the software has been subjected to rigorous 
review, the USGS reserves the right to update the software as needed 
pursuant to further analysis and review. No warranty, expressed or 
implied, is made by the USGS or the U.S. Government as to the 
functionality of the software and related material nor shall the 
fact of release constitute any such warranty. Furthermore, the 
software is released on condition that neither the USGS nor the U.S. 
Government shall be held liable for any damages resulting from its 
authorized or unauthorized use. Also refer to the USGS Water 
Resources Software User Rights Notice for complete use, copyright, 
and distribution information.


As a work of the United States Government, this USGS product is 
in the public domain within the United States. You can copy, 
modify, distribute, and perform the work, even for commercial 
purposes, all without asking permission. Additionally, USGS 
waives copyright and related rights in the work worldwide 
through CC0 1.0 Universal Public Domain Dedication 
(https://creativecommons.org/publicdomain/zero/1.0/).

The following GNU Lesser General Public License (LGPL) libraries
are used in this USGS product:

    SPARSKIT version 2.0
      ilut, luson, and qsplit 
      (https://www-users.cse.umn.edu/~saad/software/SPARSKIT/)

    RCM - Reverse Cuthill McKee Ordering
      (https://people.math.sc.edu/Burkardt/f_src/rcm/rcm.html)

    BLAS - Basic Linear Algebra Subprograms Level 1
      (https://people.math.sc.edu/Burkardt/f_src/blas1_d/blas1_d.html)

    SPARSEKIT - Sparse Matrix Utility Package
      amux, dperm, dvperm, rperm, and cperm
      (https://people.sc.fsu.edu/~jburkardt/f77_src/sparsekit/sparsekit.html)

The following BSD-3 License libraries are used in this USGS product:

    Modern Fortran DAG Library
      Copyright (c) 2018, Jacob Williams
      All rights reserved.
      (https://github.com/jacobwilliams/daglib)

MODFLOW 6 compiler options: -Ilinux/obj_mf6 -O2 -no-heap-arrays -fpe0
-traceback -Qdiag-disable:7416 -Qdiag-disable:7025 -Qdiag-disable:5268 -fpp
-module linux/mod_mf6/ -c -o linux/obj_mf6/compilerversion.o

System command used to initiate simulation:
/home/danilopezmella/flopy_expert/bin/mf6

MODFLOW was compiled using uniform precision.

Real Variables
  KIND: 8
  TINY (smallest non-zero value):    2.225074-308
  HUGE (largest value):    1.797693+308
  PRECISION: 15
  SIZE IN BITS: 64

Integer Variables
  KIND: 4
  HUGE (largest value): 2147483647
  SIZE IN BITS: 32

Long Integer Variables
  KIND: 8
  HUGE (largest value): 9223372036854775807
  SIZE IN BITS: 64

Logical Variables
  KIND: 4
  SIZE IN BITS: 32
 
 NAMEFILE OPTIONS:
    NEWTON-RAPHSON method enabled for the model.
    STRESS PACKAGE INPUT WILL BE PRINTED FOR ALL MODEL STRESS PACKAGES
    PACKAGE FLOWS WILL BE PRINTED FOR ALL MODEL PACKAGES
    FLOWS WILL BE SAVED TO BUDGET FILE SPECIFIED IN OUTPUT CONTROL
 END NAMEFILE OPTIONS:

 DIS -- STRUCTURED GRID DISCRETIZATION PACKAGE, VERSION 2 : 3/27/2014 - INPUT READ FROM MEMPATH: __INPUT__/TUTORIAL_MODEL/DIS                      


 NPF -- NODE PROPERTY FLOW PACKAGE, VERSION 1, 3/30/2015 INPUT READ FROM MEMPATH: __INPUT__/TUTORIAL_MODEL/NPF                      


 IC -- Initial Conditions Package, Version 8, 3/28/2015 input read from mempath: __INPUT__/TUTORIAL_MODEL/IC                       


 Setting Discretization Options
 End Setting Discretization Options

 Setting Discretization Dimensions
    NLAY = 3
    NROW = 10
    NCOL = 10
 End Setting Discretization Dimensions

 Setting Discretization Griddata
    DELR set from input file
    DELC set from input file
    TOP set from input file
    BOTM set from input file
 End Setting Discretization Griddata

 Setting NPF Options
    Specific discharge will be calculated at cell centers and written to DATA-SPDIS in budget file when requested.
 End Setting NPF Options

 Setting NPF Griddata
    ICELLTYPE set from input file
    K set from input file
    K33 set from input file
    K22 not provided.  Setting K22 = K.
 End Setting NPF Griddata


 WEL   -- WEL PACKAGE, VERSION 8, 2/22/2014 INPUT READ FROM MEMPATH: __INPUT__/TUTORIAL_MODEL/WEL_0                    

 PROCESSING WEL BASE OPTIONS
    FLOWS WILL BE SAVED TO BUDGET FILE SPECIFIED IN OUTPUT CONTROL
 END OF WEL BASE OPTIONS

 PROCESSING WEL OPTIONS
 END OF WEL OPTIONS

 PROCESSING WEL BASE DIMENSIONS
    MAXBOUND =       1
 END OF WEL BASE DIMENSIONS

 RCH   -- RCH PACKAGE, VERSION 8, 2/22/2014 INPUT READ FROM MEMPATH: __INPUT__/TUTORIAL_MODEL/RCHA_0                   

 PROCESSING RCH BASE OPTIONS
    FLOWS WILL BE SAVED TO BUDGET FILE SPECIFIED IN OUTPUT CONTROL
 END OF RCH BASE OPTIONS

 PROCESSING RCHA OPTIONS
    RECHARGE INPUT WILL BE READ AS ARRAY(S).
 END OF RCHA OPTIONS

 CHD   -- CHD PACKAGE, VERSION 8, 2/22/2014 INPUT READ FROM MEMPATH: __INPUT__/TUTORIAL_MODEL/CHD_0                    

 PROCESSING CHD BASE OPTIONS
    FLOWS WILL BE SAVED TO BUDGET FILE SPECIFIED IN OUTPUT CONTROL
 END OF CHD BASE OPTIONS

 PROCESSING CHD BASE DIMENSIONS
    MAXBOUND =      30
 END OF CHD BASE DIMENSIONS
    STRT set from input file

 STO -- STORAGE PACKAGE, VERSION 1, 5/19/2014 INPUT READ FROM MEMPATH: __INPUT__/TUTORIAL_MODEL/STO                      


 PROCESSING STORAGE OPTIONS
    CELL-BY-CELL FLOW INFORMATION WILL BE SAVED TO BINARY FILE WHENEVER ICBCFL IS NOT ZERO.
 END OF STORAGE OPTIONS

The observation utility is active for "TUTORIAL_MODEL"
 # File generated by Flopy version 3.9.3 on 08/07/2025 at 00:02:57.

Processing observation options:

The PRINT_INPUT option has been specified.


 OBSERVATIONS READ FROM FILE "tutorial_model.obs"
 ----------------------------------------------------------------------------------------------------------------------------------------------------------------------------------------------------------------------------
 NAME                                     TYPE                                       TIME         LOCATION DATA                              OUTPUT FILENAME                                                                 
 ----------------------------------------------------------------------------------------------------------------------------------------------------------------------------------------------------------------------------
 OBS1                                     CONTINUOUS  HEAD                           ALL TIMES    "  2 5 5"                                  obs.csv                                                                         
 OBS2                                     CONTINUOUS  HEAD                           ALL TIMES    "  2 1 1"                                  obs.csv                                                                         
 ----------------------------------------------------------------------------------------------------------------------------------------------------------------------------------------------------------------------------


    BINARY GRID INFORMATION WILL BE WRITTEN TO:
      UNIT NUMBER: 1017
      FILE NAME: tutorial_model.dis.grb

 OPENED tutorial_model.dis.grb
 FILE TYPE:DATA(BINARY)   UNIT 1017   STATUS:REPLACE             
 FORMAT:UNFORMATTED            ACCESS:STREAM              
 ACTION:READWRITE           

      THE LAST TIME STEP WILL BE PRINTED
      THE LAST TIME STEP WILL BE PRINTED
 # File generated by Flopy version 3.9.3 on 08/07/2025 at 00:02:57.

 PROCESSING OC OPTIONS

    BUDGET INFORMATION WILL BE WRITTEN TO:
      UNIT NUMBER: 1018
      FILE NAME: tutorial_model.cbc

 OPENED tutorial_model.cbc
 FILE TYPE:DATA(BINARY)   UNIT 1018   STATUS:REPLACE             
 FORMAT:UNFORMATTED            ACCESS:STREAM              
 ACTION:READWRITE           

    HEAD INFORMATION WILL BE WRITTEN TO:
      UNIT NUMBER: 1019
      FILE NAME: tutorial_model.hds

 OPENED tutorial_model.hds
 FILE TYPE:DATA(BINARY)   UNIT 1019   STATUS:REPLACE             
 FORMAT:UNFORMATTED            ACCESS:STREAM              
 ACTION:READWRITE           

 END OF OC OPTIONS

start timestep kper="1" kstp="1" mode="normal"


 BEGIN READING OUTPUT CONTROL FOR STRESS PERIOD 1
      ALL TIME STEPS WILL BE SAVED
      ALL TIME STEPS WILL BE SAVED
      THE LAST TIME STEP WILL BE PRINTED
      THE LAST TIME STEP WILL BE PRINTED

 END READING OUTPUT CONTROL FOR STRESS PERIOD 1


 PROCESSING STORAGE PERIOD DATA
 END PROCESSING STORAGE PERIOD DATA


 STRESS PERIOD 1 IS STEADY-STATE

 ----------------------------------
  WEL NO.    LAYER    ROW     COL  
 ----------------------------------
     1         2       5       5   
 ----------------------------------


 ----------------------------------
  RCH NO.    LAYER    ROW     COL  
 ----------------------------------
     1         1       1       1   
     2         1       1       2   
     3         1       1       3   
     4         1       1       4   
     5         1       1       5   
     6         1       1       6   
     7         1       1       7   
     8         1       1       8   
     9         1       1       9   
     10        1       1      10   
     11        1       2       1   
     12        1       2       2   
     13        1       2       3   
     14        1       2       4   
     15        1       2       5   
     16        1       2       6   
     17        1       2       7   
     18        1       2       8   
     19        1       2       9   
     20        1       2      10   
     21        1       3       1   
     22        1       3       2   
     23        1       3       3   
     24        1       3       4   
     25        1       3       5   
     26        1       3       6   
     27        1       3       7   
     28        1       3       8   
     29        1       3       9   
     30        1       3      10   
     31        1       4       1   
     32        1       4       2   
     33        1       4       3   
     34        1       4       4   
     35        1       4       5   
     36        1       4       6   
     37        1       4       7   
     38        1       4       8   
     39        1       4       9   
     40        1       4      10   
     41        1       5       1   
     42        1       5       2   
     43        1       5       3   
     44        1       5       4   
     45        1       5       5   
     46        1       5       6   
     47        1       5       7   
     48        1       5       8   
     49        1       5       9   
     50        1       5      10   
     51        1       6       1   
     52        1       6       2   
     53        1       6       3   
     54        1       6       4   
     55        1       6       5   
     56        1       6       6   
     57        1       6       7   
     58        1       6       8   
     59        1       6       9   
     60        1       6      10   
     61        1       7       1   
     62        1       7       2   
     63        1       7       3   
     64        1       7       4   
     65        1       7       5   
     66        1       7       6   
     67        1       7       7   
     68        1       7       8   
     69        1       7       9   
     70        1       7      10   
     71        1       8       1   
     72        1       8       2   
     73        1       8       3   
     74        1       8       4   
     75        1       8       5   
     76        1       8       6   
     77        1       8       7   
     78        1       8       8   
     79        1       8       9   
     80        1       8      10   
     81        1       9       1   
     82        1       9       2   
     83        1       9       3   
     84        1       9       4   
     85        1       9       5   
     86        1       9       6   
     87        1       9       7   
     88        1       9       8   
     89        1       9       9   
     90        1       9      10   
     91        1      10       1   
     92        1      10       2   
     93        1      10       3   
     94        1      10       4   
     95        1      10       5   
     96        1      10       6   
     97        1      10       7   
     98        1      10       8   
     99        1      10       9   
    100        1      10      10   
 ----------------------------------


 ----------------------------------
  CHD NO.    LAYER    ROW     COL  
 ----------------------------------
     1         1       1       1   
     2         1       2       1   
     3         1       3       1   
     4         1       4       1   
     5         1       5       1   
     6         1       6       1   
     7         1       7       1   
     8         1       8       1   
     9         1       9       1   
     10        1      10       1   
     11        2       1       1   
     12        2       2       1   
     13        2       3       1   
     14        2       4       1   
     15        2       5       1   
     16        2       6       1   
     17        2       7       1   
     18        2       8       1   
     19        2       9       1   
     20        2      10       1   
     21        3       1       1   
     22        3       2       1   
     23        3       3       1   
     24        3       4       1   
     25        3       5       1   
     26        3       6       1   
     27        3       7       1   
     28        3       8       1   
     29        3       9       1   
     30        3      10       1   
 ----------------------------------


 UBDSV1 SAVING           STO-SS ON UNIT   1018 AT TIME STEP      1, STRESS PERIOD      1
 UBDSV1 SAVING           STO-SY ON UNIT   1018 AT TIME STEP      1, STRESS PERIOD      1
 UBDSV1 SAVING     FLOW-JA-FACE ON UNIT   1018 AT TIME STEP      1, STRESS PERIOD      1
 UBDSV06 SAVING       DATA-SPDIS IN MODEL TUTORIAL_MODEL   PACKAGE NPF             CONNECTED TO MODEL TUTORIAL_MODEL   PACKAGE NPF              ON UNIT   1018 AT TIME STEP      1, STRESS PERIOD      1
 UBDSV06 SAVING              WEL IN MODEL TUTORIAL_MODEL   PACKAGE TUTORIAL_MODEL  CONNECTED TO MODEL TUTORIAL_MODEL   PACKAGE WEL_0            ON UNIT   1018 AT TIME STEP      1, STRESS PERIOD      1
 UBDSV06 SAVING             RCHA IN MODEL TUTORIAL_MODEL   PACKAGE TUTORIAL_MODEL  CONNECTED TO MODEL TUTORIAL_MODEL   PACKAGE RCHA_0           ON UNIT   1018 AT TIME STEP      1, STRESS PERIOD      1
 UBDSV06 SAVING              CHD IN MODEL TUTORIAL_MODEL   PACKAGE TUTORIAL_MODEL  CONNECTED TO MODEL TUTORIAL_MODEL   PACKAGE CHD_0            ON UNIT   1018 AT TIME STEP      1, STRESS PERIOD      1

    CALCULATED INTERCELL FLOW FOR PERIOD 1 STEP 1
(1,1,1): (1,1,2) 15.0745 (1,2,1) 0.00000 (2,1,1) 0.00000
(1,1,2): (1,1,1) -15.0745 (1,1,3) 12.0618 (1,2,2) -0.792332 (2,1,2) -6.19493
(1,1,3): (1,1,2) -12.0618 (1,1,4) 10.4112 (1,2,3) -1.71966 (2,1,3) -6.62982
(1,1,4): (1,1,3) -10.4112 (1,1,5) 9.81752 (1,2,4) -2.74260 (2,1,4) -6.66368
(1,1,5): (1,1,4) -9.81752 (1,1,6) 9.86973 (1,2,5) -3.38568 (2,1,5) -6.66653
(1,1,6): (1,1,5) -9.86973 (1,1,7) 9.32960 (1,2,6) -2.79321 (2,1,6) -6.66666
(1,1,7): (1,1,6) -9.32960 (1,1,8) 7.85269 (1,2,7) -1.85642 (2,1,7) -6.66667
(1,1,8): (1,1,7) -7.85269 (1,1,9) 5.61799 (1,2,8) -1.09864 (2,1,8) -6.66667
(1,1,9): (1,1,8) -5.61799 (1,1,10) 2.91567 (1,2,9) -0.631018 (2,1,9) -6.66667
(1,1,10): (1,1,9) -2.91567 (1,2,10) -0.417660 (2,1,10) -6.66667
(1,2,1): (1,1,1) 0.00000 (1,2,2) 14.2822 (1,3,1) 0.00000 (2,2,1) 0.00000
(1,2,2): (1,1,2) 0.792332 (1,2,1) -14.2822 (1,2,3) 11.1344 (1,3,2) -1.44967 (2,2,2) -6.19493
(1,2,3): (1,1,3) 1.71966 (1,2,2) -11.1344 (1,2,4) 9.38831 (1,3,3) -3.34367 (2,2,3) -6.62986
(1,2,4): (1,1,4) 2.74260 (1,2,3) -9.38831 (1,2,5) 9.17444 (1,3,4) -5.86462 (2,2,4) -6.66411
(1,2,5): (1,1,5) 3.38568 (1,2,4) -9.17444 (1,2,6) 10.4622 (1,3,5) -8.00319 (2,2,5) -6.67024
(1,2,6): (1,1,6) 2.79321 (1,2,5) -10.4622 (1,2,7) 10.2664 (1,3,6) -5.93030 (2,2,6) -6.66709
(1,2,7): (1,1,7) 1.85642 (1,2,6) -10.2664 (1,2,8) 8.61047 (1,3,7) -3.53381 (2,2,7) -6.66670
(1,2,8): (1,1,8) 1.09864 (1,2,7) -8.61047 (1,2,9) 6.08561 (1,3,8) -1.90710 (2,2,8) -6.66667
(1,2,9): (1,1,9) 0.631018 (1,2,8) -6.08561 (1,2,10) 3.12903 (1,3,9) -1.00778 (2,2,9) -6.66667
(1,2,10): (1,1,10) 0.417660 (1,2,9) -3.12903 (1,3,10) -0.621963 (2,2,10) -6.66667
(1,3,1): (1,2,1) 0.00000 (1,3,2) 12.8325 (1,4,1) 0.00000 (2,3,1) 0.00000
(1,3,2): (1,2,2) 1.44967 (1,3,1) -12.8325 (1,3,3) 9.24045 (1,4,2) -1.66266 (2,3,2) -6.19496
(1,3,3): (1,2,3) 3.34367 (1,3,2) -9.24045 (1,3,4) 6.86735 (1,4,3) -4.34008 (2,3,3) -6.63049
(1,3,4): (1,2,4) 5.86462 (1,3,3) -6.86735 (1,3,5) 7.03587 (1,4,4) -9.35809 (2,3,4) -6.67505
(1,3,5): (1,2,5) 8.00319 (1,3,4) -7.03587 (1,3,6) 12.5351 (1,4,5) -16.7070 (2,3,5) -6.79541
(1,3,6): (1,2,6) 5.93030 (1,3,5) -12.5351 (1,3,7) 12.6629 (1,4,6) -9.38004 (2,3,6) -6.67803
(1,3,7): (1,2,7) 3.53381 (1,3,6) -12.6629 (1,3,8) 10.2372 (1,4,7) -4.44077 (2,3,7) -6.66734
(1,3,8): (1,2,8) 1.90710 (1,3,7) -10.2372 (1,3,9) 6.98494 (1,4,8) -1.98817 (2,3,8) -6.66670
(1,3,9): (1,2,9) 1.00778 (1,3,8) -6.98494 (1,3,10) 3.51484 (1,4,9) -0.871014 (2,3,9) -6.66667
(1,3,10): (1,2,10) 0.621963 (1,3,9) -3.51484 (1,4,10) -0.440453 (2,3,10) -6.66667
(1,4,1): (1,3,1) 0.00000 (1,4,2) 11.1698 (1,5,1) 0.00000 (2,4,1) 0.00000
(1,4,2): (1,3,2) 1.66266 (1,4,1) -11.1698 (1,4,3) 6.56303 (1,5,2) -0.860460 (2,4,2) -6.19538
(1,4,3): (1,3,3) 4.34008 (1,4,2) -6.56303 (1,4,4) 1.84934 (1,5,3) -2.98517 (2,4,3) -6.64121
(1,4,4): (1,3,4) 9.35809 (1,4,3) -1.84934 (1,4,5) -0.313044 (1,5,4) -10.2750 (2,4,4) -6.92076
(1,4,5): (1,3,5) 16.7070 (1,4,4) 0.313044 (1,4,6) 19.8621 (1,5,5) -35.8564 (2,4,5) -11.0257
(1,4,6): (1,3,6) 9.38004 (1,4,5) -19.8621 (1,4,7) 17.6021 (1,5,6) -10.1964 (2,4,6) -6.92374
(1,4,7): (1,3,7) 4.44077 (1,4,6) -17.6021 (1,4,8) 12.6898 (1,5,7) -2.85035 (2,4,7) -6.67805
(1,4,8): (1,3,8) 1.98817 (1,4,7) -12.6898 (1,4,9) 8.10209 (1,5,8) -0.733363 (2,4,8) -6.66712
(1,4,9): (1,3,9) 0.871014 (1,4,8) -8.10209 (1,4,10) 3.94540 (1,5,9) -4.764369E-02 (2,4,9) -6.66668
(1,4,10): (1,3,10) 0.440453 (1,4,9) -3.94540 (1,5,10) 0.171617 (2,4,10) -6.66667
(1,5,1): (1,4,1) 0.00000 (1,5,2) 10.3094 (1,6,1) 0.00000 (2,5,1) 0.00000
(1,5,2): (1,4,2) 0.860460 (1,5,1) -10.3094 (1,5,3) 4.43832 (1,6,2) 1.20936 (2,5,2) -6.19875
(1,5,3): (1,4,3) 2.98517 (1,5,2) -4.43832 (1,5,4) -5.44044 (1,6,3) 3.65240 (2,5,3) -6.75882
(1,5,4): (1,4,4) 10.2750 (1,5,3) 5.44044 (1,5,5) -25.8945 (1,6,4) 11.2021 (2,5,4) -11.0229
(1,5,5): (1,4,5) 35.8564 (1,5,4) 25.8945 (1,5,6) 45.5221 (1,6,5) 36.9650 (2,5,5) -154.238
(1,5,6): (1,4,6) 10.1964 (1,5,5) -45.5221 (1,5,7) 24.9482 (1,6,6) 11.4035 (2,5,6) -11.0259
(1,5,7): (1,4,7) 2.85035 (1,5,6) -24.9482 (1,5,8) 14.8068 (1,6,7) 4.08671 (2,5,7) -6.79566
(1,5,8): (1,4,8) 0.733363 (1,5,7) -14.8068 (1,5,9) 8.78781 (1,6,8) 1.95609 (2,5,8) -6.67049
(1,5,9): (1,4,9) 4.764369E-02 (1,5,8) -8.78781 (1,5,10) 4.16466 (1,6,9) 1.24228 (2,5,9) -6.66678
(1,5,10): (1,4,10) -0.171617 (1,5,9) -4.16466 (1,6,10) 1.00295 (2,5,10) -6.66667
(1,6,1): (1,5,1) 0.00000 (1,6,2) 11.5187 (1,7,1) 0.00000 (2,6,1) 0.00000
(1,6,2): (1,5,2) -1.20936 (1,6,1) -11.5187 (1,6,3) 6.88136 (1,7,2) 2.04212 (2,6,2) -6.19538
(1,6,3): (1,5,3) -3.65240 (1,6,2) -6.88136 (1,6,4) 2.10920 (1,7,3) 5.06577 (2,6,3) -6.64121
(1,6,4): (1,5,4) -11.2021 (1,6,3) -2.10920 (1,6,5) -0.131542 (1,7,4) 10.3636 (2,6,4) -6.92076
(1,6,5): (1,5,5) -36.9650 (1,6,4) 0.131542 (1,6,6) 19.9605 (1,7,5) 17.8986 (2,6,5) -11.0257
(1,6,6): (1,5,6) -11.4035 (1,6,5) -19.9605 (1,6,7) 17.6314 (1,7,6) 10.6563 (2,6,6) -6.92374
(1,6,7): (1,5,7) -4.08671 (1,6,6) -17.6314 (1,6,8) 12.6761 (1,7,7) 5.72005 (2,6,7) -6.67805
(1,6,8): (1,5,8) -1.95609 (1,6,7) -12.6761 (1,6,9) 8.07400 (1,7,8) 3.22535 (2,6,8) -6.66712
(1,6,9): (1,5,9) -1.24228 (1,6,8) -8.07400 (1,6,10) 3.92533 (1,7,9) 2.05763 (2,6,9) -6.66668
(1,6,10): (1,5,10) -1.00295 (1,6,9) -3.92533 (1,7,10) 1.59495 (2,6,10) -6.66667
(1,7,1): (1,6,1) 0.00000 (1,7,2) 13.5609 (1,8,1) 0.00000 (2,7,1) 0.00000
(1,7,2): (1,6,2) -2.04212 (1,7,1) -13.5609 (1,7,3) 9.90502 (1,8,2) 1.89292 (2,7,2) -6.19496
(1,7,3): (1,6,3) -5.06577 (1,7,2) -9.90502 (1,7,4) 7.40699 (1,8,3) 4.19430 (2,7,3) -6.63049
(1,7,4): (1,6,4) -10.3636 (1,7,3) -7.40699 (1,7,5) 7.40355 (1,8,4) 7.04204 (2,7,4) -6.67505
(1,7,5): (1,6,5) -17.8986 (1,7,4) -7.40355 (1,7,6) 12.7182 (1,8,5) 9.37944 (2,7,5) -6.79541
(1,7,6): (1,6,6) -10.6563 (1,7,5) -12.7182 (1,7,7) 12.6952 (1,8,6) 7.35730 (2,7,6) -6.67803
(1,7,7): (1,6,7) -5.72005 (1,7,6) -12.6952 (1,7,8) 10.1814 (1,8,7) 4.90113 (2,7,7) -6.66734
(1,7,8): (1,6,8) -3.22535 (1,7,7) -10.1814 (1,7,9) 6.90629 (1,8,8) 3.16721 (2,7,8) -6.66670
(1,7,9): (1,6,9) -2.05763 (1,7,8) -6.90629 (1,7,10) 3.46265 (1,8,9) 2.16794 (2,7,9) -6.66667
(1,7,10): (1,6,10) -1.59495 (1,7,9) -3.46265 (1,8,10) 1.72427 (2,7,10) -6.66667
(1,8,1): (1,7,1) 0.00000 (1,8,2) 15.4538 (1,9,1) 0.00000 (2,8,1) 0.00000
(1,8,2): (1,7,2) -1.89292 (1,8,1) -15.4538 (1,8,3) 12.2064 (1,9,2) 1.33525 (2,8,2) -6.19493
(1,8,3): (1,7,3) -4.19430 (1,8,2) -12.2064 (1,8,4) 10.2547 (1,9,3) 2.77581 (2,8,3) -6.62986
(1,8,4): (1,7,4) -7.04204 (1,8,3) -10.2547 (1,8,5) 9.74094 (1,9,4) 4.21994 (2,8,4) -6.66411
(1,8,5): (1,7,5) -9.37944 (1,8,4) -9.74094 (1,8,6) 10.6960 (1,9,5) 5.09459 (2,8,5) -6.67024
(1,8,6): (1,7,6) -7.35730 (1,8,5) -10.6960 (1,8,7) 10.2390 (1,9,6) 4.48139 (2,8,6) -6.66709
(1,8,7): (1,7,7) -4.90113 (1,8,6) -10.2390 (1,8,8) 8.44753 (1,9,7) 3.35933 (2,8,7) -6.66670
(1,8,8): (1,7,8) -3.16721 (1,8,7) -8.44753 (1,8,9) 5.90703 (1,9,8) 2.37438 (2,8,8) -6.66667
(1,8,9): (1,7,9) -2.16794 (1,8,8) -5.90703 (1,8,10) 3.01897 (1,9,9) 1.72266 (2,8,9) -6.66667
(1,8,10): (1,7,10) -1.72427 (1,8,9) -3.01897 (1,9,10) 1.40990 (2,8,10) -6.66667
(1,9,1): (1,8,1) 0.00000 (1,9,2) 16.7890 (1,10,1) 0.00000 (2,9,1) 0.00000
(1,9,2): (1,8,2) -1.33525 (1,9,1) -16.7890 (1,9,3) 13.6470 (1,10,2) 0.672246 (2,9,2) -6.19493
(1,9,3): (1,8,3) -2.77581 (1,9,2) -13.6470 (1,9,4) 11.6989 (1,10,3) 1.35374 (2,9,3) -6.62982
(1,9,4): (1,8,4) -4.21994 (1,9,3) -11.6989 (1,9,5) 10.6156 (1,10,4) 1.96689 (2,9,4) -6.66368
(1,9,5): (1,8,5) -5.09459 (1,9,4) -10.6156 (1,9,6) 10.0828 (1,10,5) 2.29388 (2,9,5) -6.66653
(1,9,6): (1,8,6) -4.48139 (1,9,5) -10.0828 (1,9,7) 9.11696 (1,10,6) 2.11392 (2,9,6) -6.66666
(1,9,7): (1,8,7) -3.35933 (1,9,6) -9.11696 (1,9,8) 7.46257 (1,10,7) 1.68039 (2,9,7) -6.66667
(1,9,8): (1,8,8) -2.37438 (1,9,7) -7.46257 (1,9,9) 5.25531 (1,10,8) 1.24830 (2,9,8) -6.66667
(1,9,9): (1,8,9) -1.72266 (1,9,8) -5.25531 (1,9,10) 2.70621 (1,10,9) 0.938436 (2,9,9) -6.66667
(1,9,10): (1,8,10) -1.40990 (1,9,9) -2.70621 (1,10,10) 0.782780 (2,9,10) -6.66667
(1,10,1): (1,9,1) 0.00000 (1,10,2) 17.4613 (2,10,1) 0.00000
(1,10,2): (1,9,2) -0.672246 (1,10,1) -17.4613 (1,10,3) 14.3285 (2,10,2) -6.19493
(1,10,3): (1,9,3) -1.35374 (1,10,2) -14.3285 (1,10,4) 12.3120 (2,10,3) -6.62982
(1,10,4): (1,9,4) -1.96689 (1,10,3) -12.3120 (1,10,5) 10.9426 (2,10,4) -6.66366
(1,10,5): (1,9,5) -2.29388 (1,10,4) -10.9426 (1,10,6) 9.90287 (2,10,5) -6.66642
(1,10,6): (1,9,6) -2.11392 (1,10,5) -9.90287 (1,10,7) 8.68343 (2,10,6) -6.66665
(1,10,7): (1,9,7) -1.68039 (1,10,6) -8.68343 (1,10,8) 7.03049 (2,10,7) -6.66667
(1,10,8): (1,9,8) -1.24830 (1,10,7) -7.03049 (1,10,9) 4.94545 (2,10,8) -6.66667
(1,10,9): (1,9,9) -0.938436 (1,10,8) -4.94545 (1,10,10) 2.55055 (2,10,9) -6.66667
(1,10,10): (1,9,10) -0.782780 (1,10,9) -2.55055 (2,10,10) -6.66667
(2,1,1): (1,1,1) 0.00000 (2,1,2) 14.4550 (2,2,1) 0.00000 (3,1,1) 0.00000
(2,1,2): (1,1,2) 6.19493 (2,1,1) -14.4550 (2,1,3) 12.0183 (2,2,2) -0.792332 (3,1,2) -2.96587
(2,1,3): (1,1,3) 6.62982 (2,1,2) -12.0183 (2,1,4) 10.4079 (2,2,3) -1.71966 (3,1,3) -3.29975
(2,1,4): (1,1,4) 6.66368 (2,1,3) -10.4079 (2,1,5) 9.81724 (2,2,4) -2.74264 (3,1,4) -3.33041
(2,1,5): (1,1,5) 6.66653 (2,1,4) -9.81724 (2,1,6) 9.86972 (2,2,5) -3.38605 (3,1,5) -3.33297
(2,1,6): (1,1,6) 6.66666 (2,1,5) -9.86972 (2,1,7) 9.32960 (2,2,6) -2.79325 (3,1,6) -3.33330
(2,1,7): (1,1,7) 6.66667 (2,1,6) -9.32960 (2,1,8) 7.85269 (2,2,7) -1.85642 (3,1,7) -3.33333
(2,1,8): (1,1,8) 6.66667 (2,1,7) -7.85269 (2,1,9) 5.61799 (2,2,8) -1.09864 (3,1,8) -3.33333
(2,1,9): (1,1,9) 6.66667 (2,1,8) -5.61799 (2,1,10) 2.91567 (2,2,9) -0.631018 (3,1,9) -3.33333
(2,1,10): (1,1,10) 6.66667 (2,1,9) -2.91567 (2,2,10) -0.417660 (3,1,10) -3.33333
(2,2,1): (1,2,1) 0.00000 (2,1,1) 0.00000 (2,2,2) 13.6627 (2,3,1) 0.00000 (3,2,1) 0.00000
(2,2,2): (1,2,2) 6.19493 (2,1,2) 0.792332 (2,2,1) -13.6627 (2,2,3) 11.0910 (2,3,2) -1.44967 (3,2,2) -2.96586
(2,2,3): (1,2,3) 6.62986 (2,1,3) 1.71966 (2,2,2) -11.0910 (2,2,4) 9.38488 (2,3,3) -3.34373 (3,2,3) -3.29972
(2,2,4): (1,2,4) 6.66411 (2,1,4) 2.74264 (2,2,3) -9.38488 (2,2,5) 9.17383 (2,3,4) -5.86572 (3,2,4) -3.32998
(2,2,5): (1,2,5) 6.67024 (2,1,5) 3.38605 (2,2,4) -9.17383 (2,2,6) 10.4625 (2,3,5) -8.01571 (3,2,5) -3.32926
(2,2,6): (1,2,6) 6.66709 (2,1,6) 2.79325 (2,2,5) -10.4625 (2,2,7) 10.2664 (2,3,6) -5.93139 (3,2,6) -3.33286
(2,2,7): (1,2,7) 6.66670 (2,1,7) 1.85642 (2,2,6) -10.2664 (2,2,8) 8.61047 (2,3,7) -3.53387 (3,2,7) -3.33330
(2,2,8): (1,2,8) 6.66667 (2,1,8) 1.09864 (2,2,7) -8.61047 (2,2,9) 6.08561 (2,3,8) -1.90711 (3,2,8) -3.33333
(2,2,9): (1,2,9) 6.66667 (2,1,9) 0.631018 (2,2,8) -6.08561 (2,2,10) 3.12903 (2,3,9) -1.00778 (3,2,9) -3.33333
(2,2,10): (1,2,10) 6.66667 (2,1,10) 0.417660 (2,2,9) -3.12903 (2,3,10) -0.621963 (3,2,10) -3.33333
(2,3,1): (1,3,1) 0.00000 (2,2,1) 0.00000 (2,3,2) 12.2130 (2,4,1) 0.00000 (3,3,1) 0.00000
(2,3,2): (1,3,2) 6.19496 (2,2,2) 1.44967 (2,3,1) -12.2130 (2,3,3) 9.19690 (2,4,2) -1.66270 (3,3,2) -2.96583
(2,3,3): (1,3,3) 6.63049 (2,2,3) 3.34373 (2,3,2) -9.19690 (2,3,4) 6.86290 (2,4,3) -4.34115 (3,3,3) -3.29908
(2,3,4): (1,3,4) 6.67505 (2,2,4) 5.86572 (2,3,3) -6.86290 (2,3,5) 7.02383 (2,4,4) -9.38266 (3,3,4) -3.31904
(2,3,5): (1,3,5) 6.79541 (2,2,5) 8.01571 (2,3,4) -7.02383 (2,3,6) 12.5468 (2,4,5) -17.1300 (3,3,5) -3.20409
(2,3,6): (1,3,6) 6.67803 (2,2,6) 5.93139 (2,3,5) -12.5468 (2,3,7) 12.6639 (2,4,6) -9.40461 (3,3,6) -3.32192
(2,3,7): (1,3,7) 6.66734 (2,2,7) 3.53387 (2,3,6) -12.6639 (2,3,8) 10.2372 (2,4,7) -4.44184 (3,3,7) -3.33266
(2,3,8): (1,3,8) 6.66670 (2,2,8) 1.90711 (2,3,7) -10.2372 (2,3,9) 6.98494 (2,4,8) -1.98821 (3,3,8) -3.33330
(2,3,9): (1,3,9) 6.66667 (2,2,9) 1.00778 (2,3,8) -6.98494 (2,3,10) 3.51484 (2,4,9) -0.871015 (3,3,9) -3.33333
(2,3,10): (1,3,10) 6.66667 (2,2,10) 0.621963 (2,3,9) -3.51484 (2,4,10) -0.440453 (3,3,10) -3.33333
(2,4,1): (1,4,1) 0.00000 (2,3,1) 0.00000 (2,4,2) 10.5503 (2,5,1) 0.00000 (3,4,1) 0.00000
(2,4,2): (1,4,2) 6.19538 (2,3,2) 1.66270 (2,4,1) -10.5503 (2,4,3) 6.51845 (2,5,2) -0.860798 (3,4,2) -2.96542
(2,4,3): (1,4,3) 6.64121 (2,3,3) 4.34115 (2,4,2) -6.51845 (2,4,4) 1.82138 (2,5,3) -2.99693 (3,4,3) -3.28836
(2,4,4): (1,4,4) 6.92076 (2,3,4) 9.38266 (2,4,3) -1.82138 (2,4,5) -0.723537 (2,5,4) -10.6852 (3,4,4) -3.07333
(2,4,5): (1,4,5) 11.0257 (2,3,5) 17.1300 (2,4,4) 0.723537 (2,4,6) 20.2723 (2,5,5) -50.1777 (3,4,5) 1.02617
(2,4,6): (1,4,6) 6.92374 (2,3,6) 9.40461 (2,4,5) -20.2723 (2,4,7) 17.6267 (2,5,6) -10.6066 (3,4,6) -3.07622
(2,4,7): (1,4,7) 6.67805 (2,3,7) 4.44184 (2,4,6) -17.6267 (2,4,8) 12.6909 (2,5,7) -2.86211 (3,4,7) -3.32194
(2,4,8): (1,4,8) 6.66712 (2,3,8) 1.98821 (2,4,7) -12.6909 (2,4,9) 8.10213 (2,5,8) -0.733700 (3,4,8) -3.33288
(2,4,9): (1,4,9) 6.66668 (2,3,9) 0.871015 (2,4,8) -8.10213 (2,4,10) 3.94540 (2,5,9) -4.765338E-02 (3,4,9) -3.33332
(2,4,10): (1,4,10) 6.66667 (2,3,10) 0.440453 (2,4,9) -3.94540 (2,5,10) 0.171617 (3,4,10) -3.33333
(2,5,1): (1,5,1) 0.00000 (2,4,1) 0.00000 (2,5,2) 9.68951 (2,6,1) 0.00000 (3,5,1) 0.00000
(2,5,2): (1,5,2) 6.19875 (2,4,2) 0.860798 (2,5,1) -9.68951 (2,5,3) 4.38231 (2,6,2) 1.20970 (3,5,2) -2.96205
(2,5,3): (1,5,3) 6.75882 (2,4,3) 2.99693 (2,5,2) -4.38231 (2,5,4) -5.86685 (2,6,3) 3.66417 (3,5,3) -3.17076
(2,5,4): (1,5,4) 11.0229 (2,4,4) 10.6852 (2,5,3) 5.86685 (2,5,5) -40.2160 (2,6,4) 11.6123 (3,5,4) 1.02883
(2,5,5): (1,5,5) 154.238 (2,4,5) 50.1777 (2,5,4) 40.2160 (2,5,6) 59.8433 (2,6,5) 51.2863 (3,5,5) 144.239
(2,5,6): (1,5,6) 11.0259 (2,4,6) 10.6066 (2,5,5) -59.8433 (2,5,7) 25.3712 (2,6,6) 11.8137 (3,5,6) 1.02595
(2,5,7): (1,5,7) 6.79566 (2,4,7) 2.86211 (2,5,6) -25.3712 (2,5,8) 14.8193 (2,6,7) 4.09847 (3,5,7) -3.20434
(2,5,8): (1,5,8) 6.67049 (2,4,8) 0.733700 (2,5,7) -14.8193 (2,5,9) 8.78818 (2,6,8) 1.95643 (3,5,8) -3.32951
(2,5,9): (1,5,9) 6.66678 (2,4,9) 4.765338E-02 (2,5,8) -8.78818 (2,5,10) 4.16467 (2,6,9) 1.24229 (3,5,9) -3.33322
(2,5,10): (1,5,10) 6.66667 (2,4,10) -0.171617 (2,5,9) -4.16467 (2,6,10) 1.00295 (3,5,10) -3.33333
(2,6,1): (1,6,1) 0.00000 (2,5,1) 0.00000 (2,6,2) 10.8992 (2,7,1) 0.00000 (3,6,1) 0.00000
(2,6,2): (1,6,2) 6.19538 (2,5,2) -1.20970 (2,6,1) -10.8992 (2,6,3) 6.83678 (2,7,2) 2.04216 (3,6,2) -2.96542
(2,6,3): (1,6,3) 6.64121 (2,5,3) -3.66417 (2,6,2) -6.83678 (2,6,4) 2.08125 (2,7,3) 5.06684 (3,6,3) -3.28836
(2,6,4): (1,6,4) 6.92076 (2,5,4) -11.6123 (2,6,3) -2.08125 (2,6,5) -0.542034 (2,7,4) 10.3881 (3,6,4) -3.07333
(2,6,5): (1,6,5) 11.0257 (2,5,5) -51.2863 (2,6,4) 0.542034 (2,6,6) 20.3707 (2,7,5) 18.3217 (3,6,5) 1.02617
(2,6,6): (1,6,6) 6.92374 (2,5,6) -11.8137 (2,6,5) -20.3707 (2,6,7) 17.6560 (2,7,6) 10.6809 (3,6,6) -3.07622
(2,6,7): (1,6,7) 6.67805 (2,5,7) -4.09847 (2,6,6) -17.6560 (2,6,8) 12.6772 (2,7,7) 5.72112 (3,6,7) -3.32194
(2,6,8): (1,6,8) 6.66712 (2,5,8) -1.95643 (2,6,7) -12.6772 (2,6,9) 8.07405 (2,7,8) 3.22539 (3,6,8) -3.33288
(2,6,9): (1,6,9) 6.66668 (2,5,9) -1.24229 (2,6,8) -8.07405 (2,6,10) 3.92533 (2,7,9) 2.05764 (3,6,9) -3.33332
(2,6,10): (1,6,10) 6.66667 (2,5,10) -1.00295 (2,6,9) -3.92533 (2,7,10) 1.59495 (3,6,10) -3.33333
(2,7,1): (1,7,1) 0.00000 (2,6,1) 0.00000 (2,7,2) 12.9414 (2,8,1) 0.00000 (3,7,1) 0.00000
(2,7,2): (1,7,2) 6.19496 (2,6,2) -2.04216 (2,7,1) -12.9414 (2,7,3) 9.86146 (2,8,2) 1.89293 (3,7,2) -2.96583
(2,7,3): (1,7,3) 6.63049 (2,6,3) -5.06684 (2,7,2) -9.86146 (2,7,4) 7.40253 (2,8,3) 4.19436 (3,7,3) -3.29908
(2,7,4): (1,7,4) 6.67505 (2,6,4) -10.3881 (2,7,3) -7.40253 (2,7,5) 7.39151 (2,8,4) 7.04314 (3,7,4) -3.31904
(2,7,5): (1,7,5) 6.79541 (2,6,5) -18.3217 (2,7,4) -7.39151 (2,7,6) 12.7299 (2,8,5) 9.39195 (3,7,5) -3.20409
(2,7,6): (1,7,6) 6.67803 (2,6,6) -10.6809 (2,7,5) -12.7299 (2,7,7) 12.6963 (2,8,6) 7.35839 (3,7,6) -3.32192
(2,7,7): (1,7,7) 6.66734 (2,6,7) -5.72112 (2,7,6) -12.6963 (2,7,8) 10.1815 (2,8,7) 4.90119 (3,7,7) -3.33266
(2,7,8): (1,7,8) 6.66670 (2,6,8) -3.22539 (2,7,7) -10.1815 (2,7,9) 6.90629 (2,8,8) 3.16721 (3,7,8) -3.33330
(2,7,9): (1,7,9) 6.66667 (2,6,9) -2.05764 (2,7,8) -6.90629 (2,7,10) 3.46265 (2,8,9) 2.16794 (3,7,9) -3.33333
(2,7,10): (1,7,10) 6.66667 (2,6,10) -1.59495 (2,7,9) -3.46265 (2,8,10) 1.72427 (3,7,10) -3.33333
(2,8,1): (1,8,1) 0.00000 (2,7,1) 0.00000 (2,8,2) 14.8343 (2,9,1) 0.00000 (3,8,1) 0.00000
(2,8,2): (1,8,2) 6.19493 (2,7,2) -1.89293 (2,8,1) -14.8343 (2,8,3) 12.1629 (2,9,2) 1.33525 (3,8,2) -2.96586
(2,8,3): (1,8,3) 6.62986 (2,7,3) -4.19436 (2,8,2) -12.1629 (2,8,4) 10.2513 (2,9,3) 2.77582 (3,8,3) -3.29972
(2,8,4): (1,8,4) 6.66411 (2,7,4) -7.04314 (2,8,3) -10.2513 (2,8,5) 9.74033 (2,9,4) 4.21999 (3,8,4) -3.32998
(2,8,5): (1,8,5) 6.67024 (2,7,5) -9.39195 (2,8,4) -9.74033 (2,8,6) 10.6963 (2,9,5) 5.09496 (3,8,5) -3.32926
(2,8,6): (1,8,6) 6.66709 (2,7,6) -7.35839 (2,8,5) -10.6963 (2,8,7) 10.2391 (2,9,6) 4.48143 (3,8,6) -3.33286
(2,8,7): (1,8,7) 6.66670 (2,7,7) -4.90119 (2,8,6) -10.2391 (2,8,8) 8.44753 (2,9,7) 3.35933 (3,8,7) -3.33330
(2,8,8): (1,8,8) 6.66667 (2,7,8) -3.16721 (2,8,7) -8.44753 (2,8,9) 5.90703 (2,9,8) 2.37438 (3,8,8) -3.33333
(2,8,9): (1,8,9) 6.66667 (2,7,9) -2.16794 (2,8,8) -5.90703 (2,8,10) 3.01897 (2,9,9) 1.72266 (3,8,9) -3.33333
(2,8,10): (1,8,10) 6.66667 (2,7,10) -1.72427 (2,8,9) -3.01897 (2,9,10) 1.40990 (3,8,10) -3.33333
(2,9,1): (1,9,1) 0.00000 (2,8,1) 0.00000 (2,9,2) 16.1695 (2,10,1) 0.00000 (3,9,1) 0.00000
(2,9,2): (1,9,2) 6.19493 (2,8,2) -1.33525 (2,9,1) -16.1695 (2,9,3) 13.6035 (2,10,2) 0.672247 (3,9,2) -2.96587
(2,9,3): (1,9,3) 6.62982 (2,8,3) -2.77582 (2,9,2) -13.6035 (2,9,4) 11.6955 (2,10,3) 1.35374 (3,9,3) -3.29975
(2,9,4): (1,9,4) 6.66368 (2,8,4) -4.21999 (2,9,3) -11.6955 (2,9,5) 10.6153 (2,10,4) 1.96690 (3,9,4) -3.33041
(2,9,5): (1,9,5) 6.66653 (2,8,5) -5.09496 (2,9,4) -10.6153 (2,9,6) 10.0828 (2,10,5) 2.29389 (3,9,5) -3.33297
(2,9,6): (1,9,6) 6.66666 (2,8,6) -4.48143 (2,9,5) -10.0828 (2,9,7) 9.11696 (2,10,6) 2.11392 (3,9,6) -3.33330
(2,9,7): (1,9,7) 6.66667 (2,8,7) -3.35933 (2,9,6) -9.11696 (2,9,8) 7.46257 (2,10,7) 1.68039 (3,9,7) -3.33333
(2,9,8): (1,9,8) 6.66667 (2,8,8) -2.37438 (2,9,7) -7.46257 (2,9,9) 5.25531 (2,10,8) 1.24830 (3,9,8) -3.33333
(2,9,9): (1,9,9) 6.66667 (2,8,9) -1.72266 (2,9,8) -5.25531 (2,9,10) 2.70621 (2,10,9) 0.938436 (3,9,9) -3.33333
(2,9,10): (1,9,10) 6.66667 (2,8,10) -1.40990 (2,9,9) -2.70621 (2,10,10) 0.782780 (3,9,10) -3.33333
(2,10,1): (1,10,1) 0.00000 (2,9,1) 0.00000 (2,10,2) 16.8418 (3,10,1) 0.00000
(2,10,2): (1,10,2) 6.19493 (2,9,2) -0.672247 (2,10,1) -16.8418 (2,10,3) 14.2850 (3,10,2) -2.96587
(2,10,3): (1,10,3) 6.62982 (2,9,3) -1.35374 (2,10,2) -14.2850 (2,10,4) 12.3086 (3,10,3) -3.29975
(2,10,4): (1,10,4) 6.66366 (2,9,4) -1.96690 (2,10,3) -12.3086 (2,10,5) 10.9423 (3,10,4) -3.33043
(2,10,5): (1,10,5) 6.66642 (2,9,5) -2.29389 (2,10,4) -10.9423 (2,10,6) 9.90285 (3,10,5) -3.33308
(2,10,6): (1,10,6) 6.66665 (2,9,6) -2.11392 (2,10,5) -9.90285 (2,10,7) 8.68343 (3,10,6) -3.33331
(2,10,7): (1,10,7) 6.66667 (2,9,7) -1.68039 (2,10,6) -8.68343 (2,10,8) 7.03049 (3,10,7) -3.33333
(2,10,8): (1,10,8) 6.66667 (2,9,8) -1.24830 (2,10,7) -7.03049 (2,10,9) 4.94545 (3,10,8) -3.33333
(2,10,9): (1,10,9) 6.66667 (2,9,9) -0.938436 (2,10,8) -4.94545 (2,10,10) 2.55055 (3,10,9) -3.33333
(2,10,10): (1,10,10) 6.66667 (2,9,10) -0.782780 (2,10,9) -2.55055 (3,10,10) -3.33333
(3,1,1): (2,1,1) 0.00000 (3,1,2) 14.1584 (3,2,1) 0.00000
(3,1,2): (2,1,2) 2.96587 (3,1,1) -14.1584 (3,1,3) 11.9849 (3,2,2) -0.792332
(3,1,3): (2,1,3) 3.29975 (3,1,2) -11.9849 (3,1,4) 10.4048 (3,2,3) -1.71966
(3,1,4): (2,1,4) 3.33041 (3,1,3) -10.4048 (3,1,5) 9.81698 (3,2,4) -2.74260
(3,1,5): (2,1,5) 3.33297 (3,1,4) -9.81698 (3,1,6) 9.86969 (3,2,5) -3.38568
(3,1,6): (2,1,6) 3.33330 (3,1,5) -9.86969 (3,1,7) 9.32960 (3,2,6) -2.79321
(3,1,7): (2,1,7) 3.33333 (3,1,6) -9.32960 (3,1,8) 7.85269 (3,2,7) -1.85642
(3,1,8): (2,1,8) 3.33333 (3,1,7) -7.85269 (3,1,9) 5.61799 (3,2,8) -1.09864
(3,1,9): (2,1,9) 3.33333 (3,1,8) -5.61799 (3,1,10) 2.91567 (3,2,9) -0.631018
(3,1,10): (2,1,10) 3.33333 (3,1,9) -2.91567 (3,2,10) -0.417660
(3,2,1): (2,2,1) 0.00000 (3,1,1) 0.00000 (3,2,2) 13.3661 (3,3,1) 0.00000
(3,2,2): (2,2,2) 2.96586 (3,1,2) 0.792332 (3,2,1) -13.3661 (3,2,3) 11.0576 (3,3,2) -1.44967
(3,2,3): (2,2,3) 3.29972 (3,1,3) 1.71966 (3,2,2) -11.0576 (3,2,4) 9.38186 (3,3,3) -3.34367
(3,2,4): (2,2,4) 3.32998 (3,1,4) 2.74260 (3,2,3) -9.38186 (3,2,5) 9.17390 (3,3,4) -5.86462
(3,2,5): (2,2,5) 3.32926 (3,1,5) 3.38568 (3,2,4) -9.17390 (3,2,6) 10.4622 (3,3,5) -8.00319
(3,2,6): (2,2,6) 3.33286 (3,1,6) 2.79321 (3,2,5) -10.4622 (3,2,7) 10.2664 (3,3,6) -5.93030
(3,2,7): (2,2,7) 3.33330 (3,1,7) 1.85642 (3,2,6) -10.2664 (3,2,8) 8.61047 (3,3,7) -3.53381
(3,2,8): (2,2,8) 3.33333 (3,1,8) 1.09864 (3,2,7) -8.61047 (3,2,9) 6.08561 (3,3,8) -1.90710
(3,2,9): (2,2,9) 3.33333 (3,1,9) 0.631018 (3,2,8) -6.08561 (3,2,10) 3.12903 (3,3,9) -1.00778
(3,2,10): (2,2,10) 3.33333 (3,1,10) 0.417660 (3,2,9) -3.12903 (3,3,10) -0.621963
(3,3,1): (2,3,1) 0.00000 (3,2,1) 0.00000 (3,3,2) 11.9164 (3,4,1) 0.00000
(3,3,2): (2,3,2) 2.96583 (3,2,2) 1.44967 (3,3,1) -11.9164 (3,3,3) 9.16357 (3,4,2) -1.66266
(3,3,3): (2,3,3) 3.29908 (3,2,3) 3.34367 (3,3,2) -9.16357 (3,3,4) 6.86090 (3,4,3) -4.34008
(3,3,4): (2,3,4) 3.31904 (3,2,4) 5.86462 (3,3,3) -6.86090 (3,3,5) 7.03533 (3,4,4) -9.35809
(3,3,5): (2,3,5) 3.20409 (3,2,5) 8.00319 (3,3,4) -7.03533 (3,3,6) 12.5351 (3,4,5) -16.7070
(3,3,6): (2,3,6) 3.32192 (3,2,6) 5.93030 (3,3,5) -12.5351 (3,3,7) 12.6629 (3,4,6) -9.38004
(3,3,7): (2,3,7) 3.33266 (3,2,7) 3.53381 (3,3,6) -12.6629 (3,3,8) 10.2372 (3,4,7) -4.44077
(3,3,8): (2,3,8) 3.33330 (3,2,8) 1.90710 (3,3,7) -10.2372 (3,3,9) 6.98494 (3,4,8) -1.98817
(3,3,9): (2,3,9) 3.33333 (3,2,9) 1.00778 (3,3,8) -6.98494 (3,3,10) 3.51484 (3,4,9) -0.871014
(3,3,10): (2,3,10) 3.33333 (3,2,10) 0.621963 (3,3,9) -3.51484 (3,4,10) -0.440453
(3,4,1): (2,4,1) 0.00000 (3,3,1) 0.00000 (3,4,2) 10.2538 (3,5,1) 0.00000
(3,4,2): (2,4,2) 2.96542 (3,3,2) 1.66266 (3,4,1) -10.2538 (3,4,3) 6.48615 (3,5,2) -0.860460
(3,4,3): (2,4,3) 3.28836 (3,3,3) 4.34008 (3,4,2) -6.48615 (3,4,4) 1.84289 (3,5,3) -2.98517
(3,4,4): (2,4,4) 3.07333 (3,3,4) 9.35809 (3,4,3) -1.84289 (3,4,5) -0.313586 (3,5,4) -10.2750
(3,4,5): (2,4,5) -1.02617 (3,3,5) 16.7070 (3,4,4) 0.313586 (3,4,6) 19.8620 (3,5,5) -35.8564
(3,4,6): (2,4,6) 3.07622 (3,3,6) 9.38004 (3,4,5) -19.8620 (3,4,7) 17.6021 (3,5,6) -10.1964
(3,4,7): (2,4,7) 3.32194 (3,3,7) 4.44077 (3,4,6) -17.6021 (3,4,8) 12.6898 (3,5,7) -2.85035
(3,4,8): (2,4,8) 3.33288 (3,3,8) 1.98817 (3,4,7) -12.6898 (3,4,9) 8.10209 (3,5,8) -0.733363
(3,4,9): (2,4,9) 3.33332 (3,3,9) 0.871014 (3,4,8) -8.10209 (3,4,10) 3.94540 (3,5,9) -4.764368E-02
(3,4,10): (2,4,10) 3.33333 (3,3,10) 0.440453 (3,4,9) -3.94540 (3,5,10) 0.171617
(3,5,1): (2,5,1) 0.00000 (3,4,1) 0.00000 (3,5,2) 9.39330 (3,6,1) 0.00000
(3,5,2): (2,5,2) 2.96205 (3,4,2) 0.860460 (3,5,1) -9.39330 (3,5,3) 4.36144 (3,6,2) 1.20936
(3,5,3): (2,5,3) 3.17076 (3,4,3) 2.98517 (3,5,2) -4.36144 (3,5,4) -5.44689 (3,6,3) 3.65240
(3,5,4): (2,5,4) -1.02883 (3,4,4) 10.2750 (3,5,3) 5.44689 (3,5,5) -25.8951 (3,6,4) 11.2021
(3,5,5): (2,5,5) -144.239 (3,4,5) 35.8564 (3,5,4) 25.8951 (3,5,6) 45.5221 (3,6,5) 36.9650
(3,5,6): (2,5,6) -1.02595 (3,4,6) 10.1964 (3,5,5) -45.5221 (3,5,7) 24.9482 (3,6,6) 11.4035
(3,5,7): (2,5,7) 3.20434 (3,4,7) 2.85035 (3,5,6) -24.9482 (3,5,8) 14.8068 (3,6,7) 4.08671
(3,5,8): (2,5,8) 3.32951 (3,4,8) 0.733363 (3,5,7) -14.8068 (3,5,9) 8.78781 (3,6,8) 1.95609
(3,5,9): (2,5,9) 3.33322 (3,4,9) 4.764368E-02 (3,5,8) -8.78781 (3,5,10) 4.16466 (3,6,9) 1.24228
(3,5,10): (2,5,10) 3.33333 (3,4,10) -0.171617 (3,5,9) -4.16466 (3,6,10) 1.00295
(3,6,1): (2,6,1) 0.00000 (3,5,1) 0.00000 (3,6,2) 10.6027 (3,7,1) 0.00000
(3,6,2): (2,6,2) 2.96542 (3,5,2) -1.20936 (3,6,1) -10.6027 (3,6,3) 6.80448 (3,7,2) 2.04212
(3,6,3): (2,6,3) 3.28836 (3,5,3) -3.65240 (3,6,2) -6.80448 (3,6,4) 2.10275 (3,7,3) 5.06577
(3,6,4): (2,6,4) 3.07333 (3,5,4) -11.2021 (3,6,3) -2.10275 (3,6,5) -0.132083 (3,7,4) 10.3636
(3,6,5): (2,6,5) -1.02617 (3,5,5) -36.9650 (3,6,4) 0.132083 (3,6,6) 19.9605 (3,7,5) 17.8986
(3,6,6): (2,6,6) 3.07622 (3,5,6) -11.4035 (3,6,5) -19.9605 (3,6,7) 17.6314 (3,7,6) 10.6563
(3,6,7): (2,6,7) 3.32194 (3,5,7) -4.08671 (3,6,6) -17.6314 (3,6,8) 12.6761 (3,7,7) 5.72005
(3,6,8): (2,6,8) 3.33288 (3,5,8) -1.95609 (3,6,7) -12.6761 (3,6,9) 8.07400 (3,7,8) 3.22535
(3,6,9): (2,6,9) 3.33332 (3,5,9) -1.24228 (3,6,8) -8.07400 (3,6,10) 3.92533 (3,7,9) 2.05763
(3,6,10): (2,6,10) 3.33333 (3,5,10) -1.00295 (3,6,9) -3.92533 (3,7,10) 1.59495
(3,7,1): (2,7,1) 0.00000 (3,6,1) 0.00000 (3,7,2) 12.6448 (3,8,1) 0.00000
(3,7,2): (2,7,2) 2.96583 (3,6,2) -2.04212 (3,7,1) -12.6448 (3,7,3) 9.82814 (3,8,2) 1.89292
(3,7,3): (2,7,3) 3.29908 (3,6,3) -5.06577 (3,7,2) -9.82814 (3,7,4) 7.40054 (3,8,3) 4.19430
(3,7,4): (2,7,4) 3.31904 (3,6,4) -10.3636 (3,7,3) -7.40054 (3,7,5) 7.40301 (3,8,4) 7.04204
(3,7,5): (2,7,5) 3.20409 (3,6,5) -17.8986 (3,7,4) -7.40301 (3,7,6) 12.7181 (3,8,5) 9.37944
(3,7,6): (2,7,6) 3.32192 (3,6,6) -10.6563 (3,7,5) -12.7181 (3,7,7) 12.6952 (3,8,6) 7.35730
(3,7,7): (2,7,7) 3.33266 (3,6,7) -5.72005 (3,7,6) -12.6952 (3,7,8) 10.1814 (3,8,7) 4.90113
(3,7,8): (2,7,8) 3.33330 (3,6,8) -3.22535 (3,7,7) -10.1814 (3,7,9) 6.90629 (3,8,8) 3.16721
(3,7,9): (2,7,9) 3.33333 (3,6,9) -2.05763 (3,7,8) -6.90629 (3,7,10) 3.46265 (3,8,9) 2.16794
(3,7,10): (2,7,10) 3.33333 (3,6,10) -1.59495 (3,7,9) -3.46265 (3,8,10) 1.72427
(3,8,1): (2,8,1) 0.00000 (3,7,1) 0.00000 (3,8,2) 14.5377 (3,9,1) 0.00000
(3,8,2): (2,8,2) 2.96586 (3,7,2) -1.89292 (3,8,1) -14.5377 (3,8,3) 12.1295 (3,9,2) 1.33525
(3,8,3): (2,8,3) 3.29972 (3,7,3) -4.19430 (3,8,2) -12.1295 (3,8,4) 10.2483 (3,9,3) 2.77581
(3,8,4): (2,8,4) 3.32998 (3,7,4) -7.04204 (3,8,3) -10.2483 (3,8,5) 9.74040 (3,9,4) 4.21994
(3,8,5): (2,8,5) 3.32926 (3,7,5) -9.37944 (3,8,4) -9.74040 (3,8,6) 10.6960 (3,9,5) 5.09459
(3,8,6): (2,8,6) 3.33286 (3,7,6) -7.35730 (3,8,5) -10.6960 (3,8,7) 10.2390 (3,9,6) 4.48139
(3,8,7): (2,8,7) 3.33330 (3,7,7) -4.90113 (3,8,6) -10.2390 (3,8,8) 8.44753 (3,9,7) 3.35933
(3,8,8): (2,8,8) 3.33333 (3,7,8) -3.16721 (3,8,7) -8.44753 (3,8,9) 5.90703 (3,9,8) 2.37438
(3,8,9): (2,8,9) 3.33333 (3,7,9) -2.16794 (3,8,8) -5.90703 (3,8,10) 3.01897 (3,9,9) 1.72266
(3,8,10): (2,8,10) 3.33333 (3,7,10) -1.72427 (3,8,9) -3.01897 (3,9,10) 1.40990
(3,9,1): (2,9,1) 0.00000 (3,8,1) 0.00000 (3,9,2) 15.8730 (3,10,1) 0.00000
(3,9,2): (2,9,2) 2.96587 (3,8,2) -1.33525 (3,9,1) -15.8730 (3,9,3) 13.5701 (3,10,2) 0.672246
(3,9,3): (2,9,3) 3.29975 (3,8,3) -2.77581 (3,9,2) -13.5701 (3,9,4) 11.6924 (3,10,3) 1.35374
(3,9,4): (2,9,4) 3.33041 (3,8,4) -4.21994 (3,9,3) -11.6924 (3,9,5) 10.6150 (3,10,4) 1.96689
(3,9,5): (2,9,5) 3.33297 (3,8,5) -5.09459 (3,9,4) -10.6150 (3,9,6) 10.0828 (3,10,5) 2.29388
(3,9,6): (2,9,6) 3.33330 (3,8,6) -4.48139 (3,9,5) -10.0828 (3,9,7) 9.11696 (3,10,6) 2.11392
(3,9,7): (2,9,7) 3.33333 (3,8,7) -3.35933 (3,9,6) -9.11696 (3,9,8) 7.46257 (3,10,7) 1.68039
(3,9,8): (2,9,8) 3.33333 (3,8,8) -2.37438 (3,9,7) -7.46257 (3,9,9) 5.25531 (3,10,8) 1.24830
(3,9,9): (2,9,9) 3.33333 (3,8,9) -1.72266 (3,9,8) -5.25531 (3,9,10) 2.70621 (3,10,9) 0.938436
(3,9,10): (2,9,10) 3.33333 (3,8,10) -1.40990 (3,9,9) -2.70621 (3,10,10) 0.782780
(3,10,1): (2,10,1) 0.00000 (3,9,1) 0.00000 (3,10,2) 16.5452
(3,10,2): (2,10,2) 2.96587 (3,9,2) -0.672246 (3,10,1) -16.5452 (3,10,3) 14.2516
(3,10,3): (2,10,3) 3.29975 (3,9,3) -1.35374 (3,10,2) -14.2516 (3,10,4) 12.3056
(3,10,4): (2,10,4) 3.33043 (3,9,4) -1.96689 (3,10,3) -12.3056 (3,10,5) 10.9420
(3,10,5): (2,10,5) 3.33308 (3,9,5) -2.29388 (3,10,4) -10.9420 (3,10,6) 9.90282
(3,10,6): (2,10,6) 3.33331 (3,9,6) -2.11392 (3,10,5) -9.90282 (3,10,7) 8.68343
(3,10,7): (2,10,7) 3.33333 (3,9,7) -1.68039 (3,10,6) -8.68343 (3,10,8) 7.03048
(3,10,8): (2,10,8) 3.33333 (3,9,8) -1.24830 (3,10,7) -7.03048 (3,10,9) 4.94545
(3,10,9): (2,10,9) 3.33333 (3,9,9) -0.938436 (3,10,8) -4.94545 (3,10,10) 2.55055
(3,10,10): (2,10,10) 3.33333 (3,9,10) -0.782780 (3,10,9) -2.55055

 WEL PACKAGE (WEL_0) FLOW RATES   PERIOD      1   STEP        1
 -----------------------------------------------
   NUMBER   CELLID                    RATE      
 -----------------------------------------------
     1      (2,5,5)              -500.00000     
 -----------------------------------------------




 RCHA PACKAGE (RCHA_0) FLOW RATES   PERIOD      1   STEP        1
 -----------------------------------------------
   NUMBER   CELLID                    RATE      
 -----------------------------------------------
     1      (1,1,1)               0.0000000     
     2      (1,1,2)               10.000000     
     3      (1,1,3)               10.000000     
     4      (1,1,4)               10.000000     
     5      (1,1,5)               10.000000     
     6      (1,1,6)               10.000000     
     7      (1,1,7)               10.000000     
     8      (1,1,8)               10.000000     
     9      (1,1,9)               10.000000     
     10     (1,1,10)              10.000000     
     11     (1,2,1)               0.0000000     
     12     (1,2,2)               10.000000     
     13     (1,2,3)               10.000000     
     14     (1,2,4)               10.000000     
     15     (1,2,5)               10.000000     
     16     (1,2,6)               10.000000     
     17     (1,2,7)               10.000000     
     18     (1,2,8)               10.000000     
     19     (1,2,9)               10.000000     
     20     (1,2,10)              10.000000     
     21     (1,3,1)               0.0000000     
     22     (1,3,2)               10.000000     
     23     (1,3,3)               10.000000     
     24     (1,3,4)               10.000000     
     25     (1,3,5)               10.000000     
     26     (1,3,6)               10.000000     
     27     (1,3,7)               10.000000     
     28     (1,3,8)               10.000000     
     29     (1,3,9)               10.000000     
     30     (1,3,10)              10.000000     
     31     (1,4,1)               0.0000000     
     32     (1,4,2)               10.000000     
     33     (1,4,3)               10.000000     
     34     (1,4,4)               10.000000     
     35     (1,4,5)               10.000000     
     36     (1,4,6)               10.000000     
     37     (1,4,7)               10.000000     
     38     (1,4,8)               10.000000     
     39     (1,4,9)               10.000000     
     40     (1,4,10)              10.000000     
     41     (1,5,1)               0.0000000     
     42     (1,5,2)               10.000000     
     43     (1,5,3)               10.000000     
     44     (1,5,4)               10.000000     
     45     (1,5,5)               10.000000     
     46     (1,5,6)               10.000000     
     47     (1,5,7)               10.000000     
     48     (1,5,8)               10.000000     
     49     (1,5,9)               10.000000     
     50     (1,5,10)              10.000000     
     51     (1,6,1)               0.0000000     
     52     (1,6,2)               10.000000     
     53     (1,6,3)               10.000000     
     54     (1,6,4)               10.000000     
     55     (1,6,5)               10.000000     
     56     (1,6,6)               10.000000     
     57     (1,6,7)               10.000000     
     58     (1,6,8)               10.000000     
     59     (1,6,9)               10.000000     
     60     (1,6,10)              10.000000     
     61     (1,7,1)               0.0000000     
     62     (1,7,2)               10.000000     
     63     (1,7,3)               10.000000     
     64     (1,7,4)               10.000000     
     65     (1,7,5)               10.000000     
     66     (1,7,6)               10.000000     
     67     (1,7,7)               10.000000     
     68     (1,7,8)               10.000000     
     69     (1,7,9)               10.000000     
     70     (1,7,10)              10.000000     
     71     (1,8,1)               0.0000000     
     72     (1,8,2)               10.000000     
     73     (1,8,3)               10.000000     
     74     (1,8,4)               10.000000     
     75     (1,8,5)               10.000000     
     76     (1,8,6)               10.000000     
     77     (1,8,7)               10.000000     
     78     (1,8,8)               10.000000     
     79     (1,8,9)               10.000000     
     80     (1,8,10)              10.000000     
     81     (1,9,1)               0.0000000     
     82     (1,9,2)               10.000000     
     83     (1,9,3)               10.000000     
     84     (1,9,4)               10.000000     
     85     (1,9,5)               10.000000     
     86     (1,9,6)               10.000000     
     87     (1,9,7)               10.000000     
     88     (1,9,8)               10.000000     
     89     (1,9,9)               10.000000     
     90     (1,9,10)              10.000000     
     91     (1,10,1)              0.0000000     
     92     (1,10,2)              10.000000     
     93     (1,10,3)              10.000000     
     94     (1,10,4)              10.000000     
     95     (1,10,5)              10.000000     
     96     (1,10,6)              10.000000     
     97     (1,10,7)              10.000000     
     98     (1,10,8)              10.000000     
     99     (1,10,9)              10.000000     
    100     (1,10,10)             10.000000     
 -----------------------------------------------




 CHD PACKAGE (CHD_0) FLOW RATES   PERIOD      1   STEP        1
 -----------------------------------------------
   NUMBER   CELLID                    RATE      
 -----------------------------------------------
     1      (1,1,1)              -15.074504     
     2      (1,2,1)              -14.282171     
     3      (1,3,1)              -12.832500     
     4      (1,4,1)              -11.169845     
     5      (1,5,1)              -10.309384     
     6      (1,6,1)              -11.518742     
     7      (1,7,1)              -13.560860     
     8      (1,8,1)              -15.453783     
     9      (1,9,1)              -16.789030     
     10     (1,10,1)             -17.461277     
     11     (2,1,1)              -14.455010     
     12     (2,2,1)              -13.662678     
     13     (2,3,1)              -12.213004     
     14     (2,4,1)              -10.550307     
     15     (2,5,1)              -9.6895089     
     16     (2,6,1)              -10.899205     
     17     (2,7,1)              -12.941364     
     18     (2,8,1)              -14.834290     
     19     (2,9,1)              -16.169537     
     20     (2,10,1)             -16.841783     
     21     (3,1,1)              -14.158424     
     22     (3,2,1)              -13.366092     
     23     (3,3,1)              -11.916420     
     24     (3,4,1)              -10.253765     
     25     (3,5,1)              -9.3933043     
     26     (3,6,1)              -10.602663     
     27     (3,7,1)              -12.644780     
     28     (3,8,1)              -14.537704     
     29     (3,9,1)              -15.872950     
     30     (3,10,1)             -16.545197     
 -----------------------------------------------



1
  HEAD IN LAYER   1 AT END OF TIME STEP   1 IN STRESS PERIOD    1
  ---------------------------------------------------------------------------

                1               2               3               4               5               6               7               8               9              10
 ................................................................................................................................................................
   1      0.00000        0.150745        0.271363        0.375475        0.473650        0.572348        0.665644        0.744171        0.800350        0.829507    
   2      0.00000        0.142822        0.254166        0.348049        0.439794        0.544416        0.647079        0.733184        0.794040        0.825331    
   3      0.00000        0.128325        0.220729        0.289403        0.359762        0.485113        0.611741        0.714113        0.783963        0.819111    
   4      0.00000        0.111698        0.177329        0.195822        0.192692        0.391312        0.567334        0.694231        0.775252        0.814706    
   5      0.00000        0.103094        0.147477        9.307258E-02   -0.165873        0.289348        0.538830        0.686898        0.774776        0.816423    
   6      0.00000        0.115187        0.184001        0.205093        0.203778        0.403383        0.579697        0.706459        0.787199        0.826452    
   7      0.00000        0.135609        0.234659        0.308729        0.382764        0.509946        0.636898        0.738712        0.807775        0.842402    
   8      0.00000        0.154538        0.276602        0.379149        0.476558        0.583519        0.685909        0.770384        0.829455        0.859644    
   9      0.00000        0.167890        0.304360        0.421349        0.527504        0.628333        0.719502        0.794128        0.846681        0.873743    
  10      0.00000        0.174613        0.317897        0.441017        0.550443        0.649472        0.736306        0.806611        0.856066        0.881571    
1
  HEAD IN LAYER   2 AT END OF TIME STEP   1 IN STRESS PERIOD    1
  ---------------------------------------------------------------------------

                1               2               3               4               5               6               7               8               9              10
 ................................................................................................................................................................
   1      0.00000        0.144550        0.264733        0.368812        0.466984        0.565681        0.658977        0.737504        0.793684        0.822841    
   2      0.00000        0.136627        0.247536        0.341385        0.433123        0.537749        0.640413        0.726518        0.787374        0.818664    
   3      0.00000        0.122130        0.214099        0.282728        0.352966        0.478435        0.605074        0.707446        0.777296        0.812444    
   4      0.00000        0.105503        0.170688        0.188901        0.181666        0.384389        0.560656        0.687564        0.768586        0.808040    
   5      0.00000        9.689509E-02    0.140718        8.204966E-02   -0.320111        0.278322        0.532034        0.680227        0.768109        0.809756    
   6      0.00000        0.108992        0.177360        0.198172        0.192752        0.396459        0.573019        0.699792        0.780532        0.819785    
   7      0.00000        0.129414        0.228028        0.302054        0.375969        0.503268        0.630230        0.732046        0.801108        0.835735    
   8      0.00000        0.148343        0.269972        0.372485        0.469888        0.576852        0.679242        0.763718        0.822788        0.852978    
   9      0.00000        0.161695        0.297730        0.414685        0.520838        0.621666        0.712836        0.787461        0.840015        0.867077    
  10      0.00000        0.168418        0.311267        0.434354        0.543777        0.642805        0.729640        0.799944        0.849399        0.874904    
1
  HEAD IN LAYER   3 AT END OF TIME STEP   1 IN STRESS PERIOD    1
  ---------------------------------------------------------------------------

                1               2               3               4               5               6               7               8               9              10
 ................................................................................................................................................................
   1      0.00000        0.141584        0.261433        0.365481        0.463651        0.562348        0.655644        0.734171        0.790350        0.819507    
   2      0.00000        0.133661        0.244237        0.338055        0.429794        0.534416        0.637079        0.723184        0.784040        0.815331    
   3      0.00000        0.119164        0.210800        0.279409        0.349762        0.475113        0.601741        0.704113        0.773963        0.809111    
   4      0.00000        0.102538        0.167399        0.185828        0.182692        0.381312        0.557334        0.684231        0.765252        0.804706    
   5      0.00000        9.393304E-02    0.137547        8.307850E-02   -0.175872        0.279348        0.528830        0.676898        0.764776        0.806423    
   6      0.00000        0.106027        0.174071        0.195099        0.193778        0.393383        0.569697        0.696459        0.777199        0.816452    
   7      0.00000        0.126448        0.224729        0.298735        0.372765        0.499946        0.626898        0.728712        0.797775        0.832402    
   8      0.00000        0.145377        0.266672        0.369155        0.466559        0.573519        0.675909        0.760384        0.819455        0.849644    
   9      0.00000        0.158730        0.294430        0.411354        0.517505        0.618333        0.709502        0.784128        0.836681        0.863743    
  10      0.00000        0.165452        0.307968        0.431023        0.540444        0.639472        0.726306        0.796611        0.846066        0.871571    

 HEAD WILL BE SAVED ON UNIT 1019 AT END OF TIME STEP    1, STRESS PERIOD    1


  VOLUME BUDGET FOR ENTIRE MODEL AT END OF TIME STEP    1, STRESS PERIOD   1
  ---------------------------------------------------------------------------------------------------

     CUMULATIVE VOLUME      L**3       RATES FOR THIS TIME STEP      L**3/T          PACKAGE NAME    
     ------------------                 ------------------------                     ----------------

           IN:                                      IN:
           ---                                      ---
              STO-SS =           0.0000                STO-SS =           0.0000     STORAGE                          
              STO-SY =           0.0000                STO-SY =           0.0000     STORAGE                          
                 WEL =           0.0000                   WEL =           0.0000     WEL_0                            
                RCHA =         900.0000                  RCHA =         900.0000     RCHA_0                           
                 CHD =           0.0000                   CHD =           0.0000     CHD_0                            

            TOTAL IN =         900.0000              TOTAL IN =         900.0000

          OUT:                                     OUT:
          ----                                     ----
              STO-SS =           0.0000                STO-SS =           0.0000     STORAGE                          
              STO-SY =           0.0000                STO-SY =           0.0000     STORAGE                          
                 WEL =         500.0000                   WEL =         500.0000     WEL_0                            
                RCHA =           0.0000                  RCHA =           0.0000     RCHA_0                           
                 CHD =         400.0001                   CHD =         400.0001     CHD_0                            

           TOTAL OUT =         900.0001             TOTAL OUT =         900.0001

            IN - OUT =      -8.0306E-05              IN - OUT =      -8.0306E-05

 PERCENT DISCREPANCY =          -0.00     PERCENT DISCREPANCY =          -0.00




         TIME SUMMARY AT END OF TIME STEP    1 IN STRESS PERIOD    1
                    SECONDS     MINUTES      HOURS       DAYS        YEARS
                    -----------------------------------------------------------
   TIME STEP LENGTH  86400.      1440.0      24.000      1.0000     2.73785E-03
 STRESS PERIOD TIME  86400.      1440.0      24.000      1.0000     2.73785E-03
         TOTAL TIME  86400.      1440.0      24.000      1.0000     2.73785E-03


end timestep


start timestep kper="2" kstp="1" mode="normal"


 END OF FILE DETECTED IN OUTPUT CONTROL.
 CURRENT OUTPUT CONTROL SETTINGS WILL BE 
 REPEATED UNTIL THE END OF THE SIMULATION.

 OUTPUT CONTROL FOR STRESS PERIOD 2 IS REPEATED USING SETTINGS FROM A PREVIOUS STRESS PERIOD.


 PROCESSING STORAGE PERIOD DATA
 END PROCESSING STORAGE PERIOD DATA


 STRESS PERIOD 2 IS TRANSIENT

 UBDSV1 SAVING           STO-SS ON UNIT   1018 AT TIME STEP      1, STRESS PERIOD      2
 UBDSV1 SAVING           STO-SY ON UNIT   1018 AT TIME STEP      1, STRESS PERIOD      2
 UBDSV1 SAVING     FLOW-JA-FACE ON UNIT   1018 AT TIME STEP      1, STRESS PERIOD      2
 UBDSV06 SAVING       DATA-SPDIS IN MODEL TUTORIAL_MODEL   PACKAGE NPF             CONNECTED TO MODEL TUTORIAL_MODEL   PACKAGE NPF              ON UNIT   1018 AT TIME STEP      1, STRESS PERIOD      2
 UBDSV06 SAVING              WEL IN MODEL TUTORIAL_MODEL   PACKAGE TUTORIAL_MODEL  CONNECTED TO MODEL TUTORIAL_MODEL   PACKAGE WEL_0            ON UNIT   1018 AT TIME STEP      1, STRESS PERIOD      2
 UBDSV06 SAVING             RCHA IN MODEL TUTORIAL_MODEL   PACKAGE TUTORIAL_MODEL  CONNECTED TO MODEL TUTORIAL_MODEL   PACKAGE RCHA_0           ON UNIT   1018 AT TIME STEP      1, STRESS PERIOD      2
 UBDSV06 SAVING              CHD IN MODEL TUTORIAL_MODEL   PACKAGE TUTORIAL_MODEL  CONNECTED TO MODEL TUTORIAL_MODEL   PACKAGE CHD_0            ON UNIT   1018 AT TIME STEP      1, STRESS PERIOD      2

 HEAD WILL BE SAVED ON UNIT 1019 AT END OF TIME STEP    1, STRESS PERIOD    2

end timestep


start timestep kper="2" kstp="2" mode="normal"

 UBDSV1 SAVING           STO-SS ON UNIT   1018 AT TIME STEP      2, STRESS PERIOD      2
 UBDSV1 SAVING           STO-SY ON UNIT   1018 AT TIME STEP      2, STRESS PERIOD      2
 UBDSV1 SAVING     FLOW-JA-FACE ON UNIT   1018 AT TIME STEP      2, STRESS PERIOD      2
 UBDSV06 SAVING       DATA-SPDIS IN MODEL TUTORIAL_MODEL   PACKAGE NPF             CONNECTED TO MODEL TUTORIAL_MODEL   PACKAGE NPF              ON UNIT   1018 AT TIME STEP      2, STRESS PERIOD      2
 UBDSV06 SAVING              WEL IN MODEL TUTORIAL_MODEL   PACKAGE TUTORIAL_MODEL  CONNECTED TO MODEL TUTORIAL_MODEL   PACKAGE WEL_0            ON UNIT   1018 AT TIME STEP      2, STRESS PERIOD      2
 UBDSV06 SAVING             RCHA IN MODEL TUTORIAL_MODEL   PACKAGE TUTORIAL_MODEL  CONNECTED TO MODEL TUTORIAL_MODEL   PACKAGE RCHA_0           ON UNIT   1018 AT TIME STEP      2, STRESS PERIOD      2
 UBDSV06 SAVING              CHD IN MODEL TUTORIAL_MODEL   PACKAGE TUTORIAL_MODEL  CONNECTED TO MODEL TUTORIAL_MODEL   PACKAGE CHD_0            ON UNIT   1018 AT TIME STEP      2, STRESS PERIOD      2

 HEAD WILL BE SAVED ON UNIT 1019 AT END OF TIME STEP    2, STRESS PERIOD    2

end timestep


start timestep kper="2" kstp="3" mode="normal"

 UBDSV1 SAVING           STO-SS ON UNIT   1018 AT TIME STEP      3, STRESS PERIOD      2
 UBDSV1 SAVING           STO-SY ON UNIT   1018 AT TIME STEP      3, STRESS PERIOD      2
 UBDSV1 SAVING     FLOW-JA-FACE ON UNIT   1018 AT TIME STEP      3, STRESS PERIOD      2
 UBDSV06 SAVING       DATA-SPDIS IN MODEL TUTORIAL_MODEL   PACKAGE NPF             CONNECTED TO MODEL TUTORIAL_MODEL   PACKAGE NPF              ON UNIT   1018 AT TIME STEP      3, STRESS PERIOD      2
 UBDSV06 SAVING              WEL IN MODEL TUTORIAL_MODEL   PACKAGE TUTORIAL_MODEL  CONNECTED TO MODEL TUTORIAL_MODEL   PACKAGE WEL_0            ON UNIT   1018 AT TIME STEP      3, STRESS PERIOD      2
 UBDSV06 SAVING             RCHA IN MODEL TUTORIAL_MODEL   PACKAGE TUTORIAL_MODEL  CONNECTED TO MODEL TUTORIAL_MODEL   PACKAGE RCHA_0           ON UNIT   1018 AT TIME STEP      3, STRESS PERIOD      2
 UBDSV06 SAVING              CHD IN MODEL TUTORIAL_MODEL   PACKAGE TUTORIAL_MODEL  CONNECTED TO MODEL TUTORIAL_MODEL   PACKAGE CHD_0            ON UNIT   1018 AT TIME STEP      3, STRESS PERIOD      2

 HEAD WILL BE SAVED ON UNIT 1019 AT END OF TIME STEP    3, STRESS PERIOD    2

end timestep


start timestep kper="2" kstp="4" mode="normal"

 UBDSV1 SAVING           STO-SS ON UNIT   1018 AT TIME STEP      4, STRESS PERIOD      2
 UBDSV1 SAVING           STO-SY ON UNIT   1018 AT TIME STEP      4, STRESS PERIOD      2
 UBDSV1 SAVING     FLOW-JA-FACE ON UNIT   1018 AT TIME STEP      4, STRESS PERIOD      2
 UBDSV06 SAVING       DATA-SPDIS IN MODEL TUTORIAL_MODEL   PACKAGE NPF             CONNECTED TO MODEL TUTORIAL_MODEL   PACKAGE NPF              ON UNIT   1018 AT TIME STEP      4, STRESS PERIOD      2
 UBDSV06 SAVING              WEL IN MODEL TUTORIAL_MODEL   PACKAGE TUTORIAL_MODEL  CONNECTED TO MODEL TUTORIAL_MODEL   PACKAGE WEL_0            ON UNIT   1018 AT TIME STEP      4, STRESS PERIOD      2
 UBDSV06 SAVING             RCHA IN MODEL TUTORIAL_MODEL   PACKAGE TUTORIAL_MODEL  CONNECTED TO MODEL TUTORIAL_MODEL   PACKAGE RCHA_0           ON UNIT   1018 AT TIME STEP      4, STRESS PERIOD      2
 UBDSV06 SAVING              CHD IN MODEL TUTORIAL_MODEL   PACKAGE TUTORIAL_MODEL  CONNECTED TO MODEL TUTORIAL_MODEL   PACKAGE CHD_0            ON UNIT   1018 AT TIME STEP      4, STRESS PERIOD      2

 HEAD WILL BE SAVED ON UNIT 1019 AT END OF TIME STEP    4, STRESS PERIOD    2

end timestep


start timestep kper="2" kstp="5" mode="normal"

 UBDSV1 SAVING           STO-SS ON UNIT   1018 AT TIME STEP      5, STRESS PERIOD      2
 UBDSV1 SAVING           STO-SY ON UNIT   1018 AT TIME STEP      5, STRESS PERIOD      2
 UBDSV1 SAVING     FLOW-JA-FACE ON UNIT   1018 AT TIME STEP      5, STRESS PERIOD      2
 UBDSV06 SAVING       DATA-SPDIS IN MODEL TUTORIAL_MODEL   PACKAGE NPF             CONNECTED TO MODEL TUTORIAL_MODEL   PACKAGE NPF              ON UNIT   1018 AT TIME STEP      5, STRESS PERIOD      2
 UBDSV06 SAVING              WEL IN MODEL TUTORIAL_MODEL   PACKAGE TUTORIAL_MODEL  CONNECTED TO MODEL TUTORIAL_MODEL   PACKAGE WEL_0            ON UNIT   1018 AT TIME STEP      5, STRESS PERIOD      2
 UBDSV06 SAVING             RCHA IN MODEL TUTORIAL_MODEL   PACKAGE TUTORIAL_MODEL  CONNECTED TO MODEL TUTORIAL_MODEL   PACKAGE RCHA_0           ON UNIT   1018 AT TIME STEP      5, STRESS PERIOD      2
 UBDSV06 SAVING              CHD IN MODEL TUTORIAL_MODEL   PACKAGE TUTORIAL_MODEL  CONNECTED TO MODEL TUTORIAL_MODEL   PACKAGE CHD_0            ON UNIT   1018 AT TIME STEP      5, STRESS PERIOD      2

 HEAD WILL BE SAVED ON UNIT 1019 AT END OF TIME STEP    5, STRESS PERIOD    2

end timestep


start timestep kper="2" kstp="6" mode="normal"

 UBDSV1 SAVING           STO-SS ON UNIT   1018 AT TIME STEP      6, STRESS PERIOD      2
 UBDSV1 SAVING           STO-SY ON UNIT   1018 AT TIME STEP      6, STRESS PERIOD      2
 UBDSV1 SAVING     FLOW-JA-FACE ON UNIT   1018 AT TIME STEP      6, STRESS PERIOD      2
 UBDSV06 SAVING       DATA-SPDIS IN MODEL TUTORIAL_MODEL   PACKAGE NPF             CONNECTED TO MODEL TUTORIAL_MODEL   PACKAGE NPF              ON UNIT   1018 AT TIME STEP      6, STRESS PERIOD      2
 UBDSV06 SAVING              WEL IN MODEL TUTORIAL_MODEL   PACKAGE TUTORIAL_MODEL  CONNECTED TO MODEL TUTORIAL_MODEL   PACKAGE WEL_0            ON UNIT   1018 AT TIME STEP      6, STRESS PERIOD      2
 UBDSV06 SAVING             RCHA IN MODEL TUTORIAL_MODEL   PACKAGE TUTORIAL_MODEL  CONNECTED TO MODEL TUTORIAL_MODEL   PACKAGE RCHA_0           ON UNIT   1018 AT TIME STEP      6, STRESS PERIOD      2
 UBDSV06 SAVING              CHD IN MODEL TUTORIAL_MODEL   PACKAGE TUTORIAL_MODEL  CONNECTED TO MODEL TUTORIAL_MODEL   PACKAGE CHD_0            ON UNIT   1018 AT TIME STEP      6, STRESS PERIOD      2

 HEAD WILL BE SAVED ON UNIT 1019 AT END OF TIME STEP    6, STRESS PERIOD    2

end timestep


start timestep kper="2" kstp="7" mode="normal"

 UBDSV1 SAVING           STO-SS ON UNIT   1018 AT TIME STEP      7, STRESS PERIOD      2
 UBDSV1 SAVING           STO-SY ON UNIT   1018 AT TIME STEP      7, STRESS PERIOD      2
 UBDSV1 SAVING     FLOW-JA-FACE ON UNIT   1018 AT TIME STEP      7, STRESS PERIOD      2
 UBDSV06 SAVING       DATA-SPDIS IN MODEL TUTORIAL_MODEL   PACKAGE NPF             CONNECTED TO MODEL TUTORIAL_MODEL   PACKAGE NPF              ON UNIT   1018 AT TIME STEP      7, STRESS PERIOD      2
 UBDSV06 SAVING              WEL IN MODEL TUTORIAL_MODEL   PACKAGE TUTORIAL_MODEL  CONNECTED TO MODEL TUTORIAL_MODEL   PACKAGE WEL_0            ON UNIT   1018 AT TIME STEP      7, STRESS PERIOD      2
 UBDSV06 SAVING             RCHA IN MODEL TUTORIAL_MODEL   PACKAGE TUTORIAL_MODEL  CONNECTED TO MODEL TUTORIAL_MODEL   PACKAGE RCHA_0           ON UNIT   1018 AT TIME STEP      7, STRESS PERIOD      2
 UBDSV06 SAVING              CHD IN MODEL TUTORIAL_MODEL   PACKAGE TUTORIAL_MODEL  CONNECTED TO MODEL TUTORIAL_MODEL   PACKAGE CHD_0            ON UNIT   1018 AT TIME STEP      7, STRESS PERIOD      2

 HEAD WILL BE SAVED ON UNIT 1019 AT END OF TIME STEP    7, STRESS PERIOD    2

end timestep


start timestep kper="2" kstp="8" mode="normal"

 UBDSV1 SAVING           STO-SS ON UNIT   1018 AT TIME STEP      8, STRESS PERIOD      2
 UBDSV1 SAVING           STO-SY ON UNIT   1018 AT TIME STEP      8, STRESS PERIOD      2
 UBDSV1 SAVING     FLOW-JA-FACE ON UNIT   1018 AT TIME STEP      8, STRESS PERIOD      2
 UBDSV06 SAVING       DATA-SPDIS IN MODEL TUTORIAL_MODEL   PACKAGE NPF             CONNECTED TO MODEL TUTORIAL_MODEL   PACKAGE NPF              ON UNIT   1018 AT TIME STEP      8, STRESS PERIOD      2
 UBDSV06 SAVING              WEL IN MODEL TUTORIAL_MODEL   PACKAGE TUTORIAL_MODEL  CONNECTED TO MODEL TUTORIAL_MODEL   PACKAGE WEL_0            ON UNIT   1018 AT TIME STEP      8, STRESS PERIOD      2
 UBDSV06 SAVING             RCHA IN MODEL TUTORIAL_MODEL   PACKAGE TUTORIAL_MODEL  CONNECTED TO MODEL TUTORIAL_MODEL   PACKAGE RCHA_0           ON UNIT   1018 AT TIME STEP      8, STRESS PERIOD      2
 UBDSV06 SAVING              CHD IN MODEL TUTORIAL_MODEL   PACKAGE TUTORIAL_MODEL  CONNECTED TO MODEL TUTORIAL_MODEL   PACKAGE CHD_0            ON UNIT   1018 AT TIME STEP      8, STRESS PERIOD      2

 HEAD WILL BE SAVED ON UNIT 1019 AT END OF TIME STEP    8, STRESS PERIOD    2

end timestep


start timestep kper="2" kstp="9" mode="normal"

 UBDSV1 SAVING           STO-SS ON UNIT   1018 AT TIME STEP      9, STRESS PERIOD      2
 UBDSV1 SAVING           STO-SY ON UNIT   1018 AT TIME STEP      9, STRESS PERIOD      2
 UBDSV1 SAVING     FLOW-JA-FACE ON UNIT   1018 AT TIME STEP      9, STRESS PERIOD      2
 UBDSV06 SAVING       DATA-SPDIS IN MODEL TUTORIAL_MODEL   PACKAGE NPF             CONNECTED TO MODEL TUTORIAL_MODEL   PACKAGE NPF              ON UNIT   1018 AT TIME STEP      9, STRESS PERIOD      2
 UBDSV06 SAVING              WEL IN MODEL TUTORIAL_MODEL   PACKAGE TUTORIAL_MODEL  CONNECTED TO MODEL TUTORIAL_MODEL   PACKAGE WEL_0            ON UNIT   1018 AT TIME STEP      9, STRESS PERIOD      2
 UBDSV06 SAVING             RCHA IN MODEL TUTORIAL_MODEL   PACKAGE TUTORIAL_MODEL  CONNECTED TO MODEL TUTORIAL_MODEL   PACKAGE RCHA_0           ON UNIT   1018 AT TIME STEP      9, STRESS PERIOD      2
 UBDSV06 SAVING              CHD IN MODEL TUTORIAL_MODEL   PACKAGE TUTORIAL_MODEL  CONNECTED TO MODEL TUTORIAL_MODEL   PACKAGE CHD_0            ON UNIT   1018 AT TIME STEP      9, STRESS PERIOD      2

 HEAD WILL BE SAVED ON UNIT 1019 AT END OF TIME STEP    9, STRESS PERIOD    2

end timestep


start timestep kper="2" kstp="10" mode="normal"

 UBDSV1 SAVING           STO-SS ON UNIT   1018 AT TIME STEP     10, STRESS PERIOD      2
 UBDSV1 SAVING           STO-SY ON UNIT   1018 AT TIME STEP     10, STRESS PERIOD      2
 UBDSV1 SAVING     FLOW-JA-FACE ON UNIT   1018 AT TIME STEP     10, STRESS PERIOD      2
 UBDSV06 SAVING       DATA-SPDIS IN MODEL TUTORIAL_MODEL   PACKAGE NPF             CONNECTED TO MODEL TUTORIAL_MODEL   PACKAGE NPF              ON UNIT   1018 AT TIME STEP     10, STRESS PERIOD      2
 UBDSV06 SAVING              WEL IN MODEL TUTORIAL_MODEL   PACKAGE TUTORIAL_MODEL  CONNECTED TO MODEL TUTORIAL_MODEL   PACKAGE WEL_0            ON UNIT   1018 AT TIME STEP     10, STRESS PERIOD      2
 UBDSV06 SAVING             RCHA IN MODEL TUTORIAL_MODEL   PACKAGE TUTORIAL_MODEL  CONNECTED TO MODEL TUTORIAL_MODEL   PACKAGE RCHA_0           ON UNIT   1018 AT TIME STEP     10, STRESS PERIOD      2
 UBDSV06 SAVING              CHD IN MODEL TUTORIAL_MODEL   PACKAGE TUTORIAL_MODEL  CONNECTED TO MODEL TUTORIAL_MODEL   PACKAGE CHD_0            ON UNIT   1018 AT TIME STEP     10, STRESS PERIOD      2

    CALCULATED INTERCELL FLOW FOR PERIOD 2 STEP 10
(1,1,1): (1,1,2) 15.0745 (1,2,1) 0.00000 (2,1,1) 0.00000
(1,1,2): (1,1,1) -15.0745 (1,1,3) 12.0618 (1,2,2) -0.792332 (2,1,2) -6.19493
(1,1,3): (1,1,2) -12.0618 (1,1,4) 10.4112 (1,2,3) -1.71966 (2,1,3) -6.62982
(1,1,4): (1,1,3) -10.4112 (1,1,5) 9.81752 (1,2,4) -2.74260 (2,1,4) -6.66368
(1,1,5): (1,1,4) -9.81752 (1,1,6) 9.86973 (1,2,5) -3.38568 (2,1,5) -6.66653
(1,1,6): (1,1,5) -9.86973 (1,1,7) 9.32960 (1,2,6) -2.79321 (2,1,6) -6.66666
(1,1,7): (1,1,6) -9.32960 (1,1,8) 7.85269 (1,2,7) -1.85642 (2,1,7) -6.66667
(1,1,8): (1,1,7) -7.85269 (1,1,9) 5.61799 (1,2,8) -1.09864 (2,1,8) -6.66667
(1,1,9): (1,1,8) -5.61799 (1,1,10) 2.91567 (1,2,9) -0.631018 (2,1,9) -6.66667
(1,1,10): (1,1,9) -2.91567 (1,2,10) -0.417660 (2,1,10) -6.66667
(1,2,1): (1,1,1) 0.00000 (1,2,2) 14.2822 (1,3,1) 0.00000 (2,2,1) 0.00000
(1,2,2): (1,1,2) 0.792332 (1,2,1) -14.2822 (1,2,3) 11.1344 (1,3,2) -1.44967 (2,2,2) -6.19493
(1,2,3): (1,1,3) 1.71966 (1,2,2) -11.1344 (1,2,4) 9.38831 (1,3,3) -3.34367 (2,2,3) -6.62986
(1,2,4): (1,1,4) 2.74260 (1,2,3) -9.38831 (1,2,5) 9.17444 (1,3,4) -5.86462 (2,2,4) -6.66411
(1,2,5): (1,1,5) 3.38568 (1,2,4) -9.17444 (1,2,6) 10.4622 (1,3,5) -8.00319 (2,2,5) -6.67024
(1,2,6): (1,1,6) 2.79321 (1,2,5) -10.4622 (1,2,7) 10.2664 (1,3,6) -5.93030 (2,2,6) -6.66709
(1,2,7): (1,1,7) 1.85642 (1,2,6) -10.2664 (1,2,8) 8.61047 (1,3,7) -3.53381 (2,2,7) -6.66670
(1,2,8): (1,1,8) 1.09864 (1,2,7) -8.61047 (1,2,9) 6.08561 (1,3,8) -1.90710 (2,2,8) -6.66667
(1,2,9): (1,1,9) 0.631018 (1,2,8) -6.08561 (1,2,10) 3.12903 (1,3,9) -1.00778 (2,2,9) -6.66667
(1,2,10): (1,1,10) 0.417660 (1,2,9) -3.12903 (1,3,10) -0.621963 (2,2,10) -6.66667
(1,3,1): (1,2,1) 0.00000 (1,3,2) 12.8325 (1,4,1) 0.00000 (2,3,1) 0.00000
(1,3,2): (1,2,2) 1.44967 (1,3,1) -12.8325 (1,3,3) 9.24045 (1,4,2) -1.66266 (2,3,2) -6.19496
(1,3,3): (1,2,3) 3.34367 (1,3,2) -9.24045 (1,3,4) 6.86735 (1,4,3) -4.34008 (2,3,3) -6.63049
(1,3,4): (1,2,4) 5.86462 (1,3,3) -6.86735 (1,3,5) 7.03587 (1,4,4) -9.35809 (2,3,4) -6.67505
(1,3,5): (1,2,5) 8.00319 (1,3,4) -7.03587 (1,3,6) 12.5351 (1,4,5) -16.7070 (2,3,5) -6.79541
(1,3,6): (1,2,6) 5.93030 (1,3,5) -12.5351 (1,3,7) 12.6629 (1,4,6) -9.38004 (2,3,6) -6.67803
(1,3,7): (1,2,7) 3.53381 (1,3,6) -12.6629 (1,3,8) 10.2372 (1,4,7) -4.44077 (2,3,7) -6.66734
(1,3,8): (1,2,8) 1.90710 (1,3,7) -10.2372 (1,3,9) 6.98494 (1,4,8) -1.98817 (2,3,8) -6.66670
(1,3,9): (1,2,9) 1.00778 (1,3,8) -6.98494 (1,3,10) 3.51484 (1,4,9) -0.871014 (2,3,9) -6.66667
(1,3,10): (1,2,10) 0.621963 (1,3,9) -3.51484 (1,4,10) -0.440453 (2,3,10) -6.66667
(1,4,1): (1,3,1) 0.00000 (1,4,2) 11.1698 (1,5,1) 0.00000 (2,4,1) 0.00000
(1,4,2): (1,3,2) 1.66266 (1,4,1) -11.1698 (1,4,3) 6.56303 (1,5,2) -0.860460 (2,4,2) -6.19538
(1,4,3): (1,3,3) 4.34008 (1,4,2) -6.56303 (1,4,4) 1.84934 (1,5,3) -2.98517 (2,4,3) -6.64121
(1,4,4): (1,3,4) 9.35809 (1,4,3) -1.84934 (1,4,5) -0.313046 (1,5,4) -10.2750 (2,4,4) -6.92076
(1,4,5): (1,3,5) 16.7070 (1,4,4) 0.313046 (1,4,6) 19.8621 (1,5,5) -35.8564 (2,4,5) -11.0257
(1,4,6): (1,3,6) 9.38004 (1,4,5) -19.8621 (1,4,7) 17.6021 (1,5,6) -10.1964 (2,4,6) -6.92374
(1,4,7): (1,3,7) 4.44077 (1,4,6) -17.6021 (1,4,8) 12.6898 (1,5,7) -2.85035 (2,4,7) -6.67805
(1,4,8): (1,3,8) 1.98817 (1,4,7) -12.6898 (1,4,9) 8.10209 (1,5,8) -0.733363 (2,4,8) -6.66712
(1,4,9): (1,3,9) 0.871014 (1,4,8) -8.10209 (1,4,10) 3.94540 (1,5,9) -4.764362E-02 (2,4,9) -6.66668
(1,4,10): (1,3,10) 0.440453 (1,4,9) -3.94540 (1,5,10) 0.171617 (2,4,10) -6.66667
(1,5,1): (1,4,1) 0.00000 (1,5,2) 10.3094 (1,6,1) 0.00000 (2,5,1) 0.00000
(1,5,2): (1,4,2) 0.860460 (1,5,1) -10.3094 (1,5,3) 4.43831 (1,6,2) 1.20936 (2,5,2) -6.19875
(1,5,3): (1,4,3) 2.98517 (1,5,2) -4.43831 (1,5,4) -5.44044 (1,6,3) 3.65240 (2,5,3) -6.75882
(1,5,4): (1,4,4) 10.2750 (1,5,3) 5.44044 (1,5,5) -25.8945 (1,6,4) 11.2021 (2,5,4) -11.0229
(1,5,5): (1,4,5) 35.8564 (1,5,4) 25.8945 (1,5,6) 45.5221 (1,6,5) 36.9650 (2,5,5) -154.238
(1,5,6): (1,4,6) 10.1964 (1,5,5) -45.5221 (1,5,7) 24.9482 (1,6,6) 11.4035 (2,5,6) -11.0259
(1,5,7): (1,4,7) 2.85035 (1,5,6) -24.9482 (1,5,8) 14.8068 (1,6,7) 4.08671 (2,5,7) -6.79566
(1,5,8): (1,4,8) 0.733363 (1,5,7) -14.8068 (1,5,9) 8.78781 (1,6,8) 1.95609 (2,5,8) -6.67049
(1,5,9): (1,4,9) 4.764362E-02 (1,5,8) -8.78781 (1,5,10) 4.16466 (1,6,9) 1.24228 (2,5,9) -6.66678
(1,5,10): (1,4,10) -0.171617 (1,5,9) -4.16466 (1,6,10) 1.00295 (2,5,10) -6.66667
(1,6,1): (1,5,1) 0.00000 (1,6,2) 11.5187 (1,7,1) 0.00000 (2,6,1) 0.00000
(1,6,2): (1,5,2) -1.20936 (1,6,1) -11.5187 (1,6,3) 6.88136 (1,7,2) 2.04212 (2,6,2) -6.19538
(1,6,3): (1,5,3) -3.65240 (1,6,2) -6.88136 (1,6,4) 2.10920 (1,7,3) 5.06577 (2,6,3) -6.64121
(1,6,4): (1,5,4) -11.2021 (1,6,3) -2.10920 (1,6,5) -0.131543 (1,7,4) 10.3636 (2,6,4) -6.92076
(1,6,5): (1,5,5) -36.9650 (1,6,4) 0.131543 (1,6,6) 19.9605 (1,7,5) 17.8986 (2,6,5) -11.0257
(1,6,6): (1,5,6) -11.4035 (1,6,5) -19.9605 (1,6,7) 17.6314 (1,7,6) 10.6563 (2,6,6) -6.92374
(1,6,7): (1,5,7) -4.08671 (1,6,6) -17.6314 (1,6,8) 12.6761 (1,7,7) 5.72005 (2,6,7) -6.67805
(1,6,8): (1,5,8) -1.95609 (1,6,7) -12.6761 (1,6,9) 8.07400 (1,7,8) 3.22535 (2,6,8) -6.66712
(1,6,9): (1,5,9) -1.24228 (1,6,8) -8.07400 (1,6,10) 3.92533 (1,7,9) 2.05764 (2,6,9) -6.66668
(1,6,10): (1,5,10) -1.00295 (1,6,9) -3.92533 (1,7,10) 1.59495 (2,6,10) -6.66667
(1,7,1): (1,6,1) 0.00000 (1,7,2) 13.5609 (1,8,1) 0.00000 (2,7,1) 0.00000
(1,7,2): (1,6,2) -2.04212 (1,7,1) -13.5609 (1,7,3) 9.90502 (1,8,2) 1.89292 (2,7,2) -6.19496
(1,7,3): (1,6,3) -5.06577 (1,7,2) -9.90502 (1,7,4) 7.40699 (1,8,3) 4.19430 (2,7,3) -6.63049
(1,7,4): (1,6,4) -10.3636 (1,7,3) -7.40699 (1,7,5) 7.40355 (1,8,4) 7.04204 (2,7,4) -6.67505
(1,7,5): (1,6,5) -17.8986 (1,7,4) -7.40355 (1,7,6) 12.7182 (1,8,5) 9.37944 (2,7,5) -6.79541
(1,7,6): (1,6,6) -10.6563 (1,7,5) -12.7182 (1,7,7) 12.6952 (1,8,6) 7.35730 (2,7,6) -6.67803
(1,7,7): (1,6,7) -5.72005 (1,7,6) -12.6952 (1,7,8) 10.1814 (1,8,7) 4.90113 (2,7,7) -6.66734
(1,7,8): (1,6,8) -3.22535 (1,7,7) -10.1814 (1,7,9) 6.90629 (1,8,8) 3.16721 (2,7,8) -6.66670
(1,7,9): (1,6,9) -2.05764 (1,7,8) -6.90629 (1,7,10) 3.46265 (1,8,9) 2.16794 (2,7,9) -6.66667
(1,7,10): (1,6,10) -1.59495 (1,7,9) -3.46265 (1,8,10) 1.72427 (2,7,10) -6.66667
(1,8,1): (1,7,1) 0.00000 (1,8,2) 15.4538 (1,9,1) 0.00000 (2,8,1) 0.00000
(1,8,2): (1,7,2) -1.89292 (1,8,1) -15.4538 (1,8,3) 12.2064 (1,9,2) 1.33525 (2,8,2) -6.19493
(1,8,3): (1,7,3) -4.19430 (1,8,2) -12.2064 (1,8,4) 10.2547 (1,9,3) 2.77581 (2,8,3) -6.62986
(1,8,4): (1,7,4) -7.04204 (1,8,3) -10.2547 (1,8,5) 9.74094 (1,9,4) 4.21994 (2,8,4) -6.66411
(1,8,5): (1,7,5) -9.37944 (1,8,4) -9.74094 (1,8,6) 10.6960 (1,9,5) 5.09459 (2,8,5) -6.67024
(1,8,6): (1,7,6) -7.35730 (1,8,5) -10.6960 (1,8,7) 10.2390 (1,9,6) 4.48139 (2,8,6) -6.66709
(1,8,7): (1,7,7) -4.90113 (1,8,6) -10.2390 (1,8,8) 8.44753 (1,9,7) 3.35933 (2,8,7) -6.66670
(1,8,8): (1,7,8) -3.16721 (1,8,7) -8.44753 (1,8,9) 5.90703 (1,9,8) 2.37438 (2,8,8) -6.66667
(1,8,9): (1,7,9) -2.16794 (1,8,8) -5.90703 (1,8,10) 3.01897 (1,9,9) 1.72266 (2,8,9) -6.66667
(1,8,10): (1,7,10) -1.72427 (1,8,9) -3.01897 (1,9,10) 1.40990 (2,8,10) -6.66667
(1,9,1): (1,8,1) 0.00000 (1,9,2) 16.7890 (1,10,1) 0.00000 (2,9,1) 0.00000
(1,9,2): (1,8,2) -1.33525 (1,9,1) -16.7890 (1,9,3) 13.6470 (1,10,2) 0.672247 (2,9,2) -6.19493
(1,9,3): (1,8,3) -2.77581 (1,9,2) -13.6470 (1,9,4) 11.6989 (1,10,3) 1.35374 (2,9,3) -6.62982
(1,9,4): (1,8,4) -4.21994 (1,9,3) -11.6989 (1,9,5) 10.6156 (1,10,4) 1.96689 (2,9,4) -6.66368
(1,9,5): (1,8,5) -5.09459 (1,9,4) -10.6156 (1,9,6) 10.0828 (1,10,5) 2.29388 (2,9,5) -6.66653
(1,9,6): (1,8,6) -4.48139 (1,9,5) -10.0828 (1,9,7) 9.11696 (1,10,6) 2.11392 (2,9,6) -6.66666
(1,9,7): (1,8,7) -3.35933 (1,9,6) -9.11696 (1,9,8) 7.46257 (1,10,7) 1.68039 (2,9,7) -6.66667
(1,9,8): (1,8,8) -2.37438 (1,9,7) -7.46257 (1,9,9) 5.25531 (1,10,8) 1.24830 (2,9,8) -6.66667
(1,9,9): (1,8,9) -1.72266 (1,9,8) -5.25531 (1,9,10) 2.70621 (1,10,9) 0.938436 (2,9,9) -6.66667
(1,9,10): (1,8,10) -1.40990 (1,9,9) -2.70621 (1,10,10) 0.782780 (2,9,10) -6.66667
(1,10,1): (1,9,1) 0.00000 (1,10,2) 17.4613 (2,10,1) 0.00000
(1,10,2): (1,9,2) -0.672247 (1,10,1) -17.4613 (1,10,3) 14.3285 (2,10,2) -6.19493
(1,10,3): (1,9,3) -1.35374 (1,10,2) -14.3285 (1,10,4) 12.3120 (2,10,3) -6.62982
(1,10,4): (1,9,4) -1.96689 (1,10,3) -12.3120 (1,10,5) 10.9426 (2,10,4) -6.66366
(1,10,5): (1,9,5) -2.29388 (1,10,4) -10.9426 (1,10,6) 9.90287 (2,10,5) -6.66642
(1,10,6): (1,9,6) -2.11392 (1,10,5) -9.90287 (1,10,7) 8.68343 (2,10,6) -6.66665
(1,10,7): (1,9,7) -1.68039 (1,10,6) -8.68343 (1,10,8) 7.03048 (2,10,7) -6.66666
(1,10,8): (1,9,8) -1.24830 (1,10,7) -7.03048 (1,10,9) 4.94545 (2,10,8) -6.66667
[...]
(3,6,8): (2,6,8) 3.33288 (3,5,8) -1.95609 (3,6,7) -12.6761 (3,6,9) 8.07400 (3,7,8) 3.22535
(3,6,9): (2,6,9) 3.33332 (3,5,9) -1.24228 (3,6,8) -8.07400 (3,6,10) 3.92533 (3,7,9) 2.05764
(3,6,10): (2,6,10) 3.33333 (3,5,10) -1.00295 (3,6,9) -3.92533 (3,7,10) 1.59495
(3,7,1): (2,7,1) 0.00000 (3,6,1) 0.00000 (3,7,2) 12.6448 (3,8,1) 0.00000
(3,7,2): (2,7,2) 2.96583 (3,6,2) -2.04212 (3,7,1) -12.6448 (3,7,3) 9.82814 (3,8,2) 1.89292
(3,7,3): (2,7,3) 3.29908 (3,6,3) -5.06577 (3,7,2) -9.82814 (3,7,4) 7.40053 (3,8,3) 4.19430
(3,7,4): (2,7,4) 3.31904 (3,6,4) -10.3636 (3,7,3) -7.40053 (3,7,5) 7.40300 (3,8,4) 7.04204
(3,7,5): (2,7,5) 3.20409 (3,6,5) -17.8986 (3,7,4) -7.40300 (3,7,6) 12.7181 (3,8,5) 9.37944
(3,7,6): (2,7,6) 3.32192 (3,6,6) -10.6563 (3,7,5) -12.7181 (3,7,7) 12.6952 (3,8,6) 7.35730
(3,7,7): (2,7,7) 3.33266 (3,6,7) -5.72005 (3,7,6) -12.6952 (3,7,8) 10.1814 (3,8,7) 4.90113
(3,7,8): (2,7,8) 3.33330 (3,6,8) -3.22535 (3,7,7) -10.1814 (3,7,9) 6.90629 (3,8,8) 3.16721
(3,7,9): (2,7,9) 3.33333 (3,6,9) -2.05764 (3,7,8) -6.90629 (3,7,10) 3.46265 (3,8,9) 2.16794
(3,7,10): (2,7,10) 3.33333 (3,6,10) -1.59495 (3,7,9) -3.46265 (3,8,10) 1.72427
(3,8,1): (2,8,1) 0.00000 (3,7,1) 0.00000 (3,8,2) 14.5377 (3,9,1) 0.00000
(3,8,2): (2,8,2) 2.96586 (3,7,2) -1.89292 (3,8,1) -14.5377 (3,8,3) 12.1295 (3,9,2) 1.33525
(3,8,3): (2,8,3) 3.29972 (3,7,3) -4.19430 (3,8,2) -12.1295 (3,8,4) 10.2483 (3,9,3) 2.77581
(3,8,4): (2,8,4) 3.32998 (3,7,4) -7.04204 (3,8,3) -10.2483 (3,8,5) 9.74040 (3,9,4) 4.21994
(3,8,5): (2,8,5) 3.32926 (3,7,5) -9.37944 (3,8,4) -9.74040 (3,8,6) 10.6960 (3,9,5) 5.09459
(3,8,6): (2,8,6) 3.33286 (3,7,6) -7.35730 (3,8,5) -10.6960 (3,8,7) 10.2390 (3,9,6) 4.48139
(3,8,7): (2,8,7) 3.33330 (3,7,7) -4.90113 (3,8,6) -10.2390 (3,8,8) 8.44752 (3,9,7) 3.35933
(3,8,8): (2,8,8) 3.33333 (3,7,8) -3.16721 (3,8,7) -8.44752 (3,8,9) 5.90703 (3,9,8) 2.37438
(3,8,9): (2,8,9) 3.33333 (3,7,9) -2.16794 (3,8,8) -5.90703 (3,8,10) 3.01897 (3,9,9) 1.72266
(3,8,10): (2,8,10) 3.33333 (3,7,10) -1.72427 (3,8,9) -3.01897 (3,9,10) 1.40990
(3,9,1): (2,9,1) 0.00000 (3,8,1) 0.00000 (3,9,2) 15.8729 (3,10,1) 0.00000
(3,9,2): (2,9,2) 2.96587 (3,8,2) -1.33525 (3,9,1) -15.8729 (3,9,3) 13.5701 (3,10,2) 0.672247
(3,9,3): (2,9,3) 3.29975 (3,8,3) -2.77581 (3,9,2) -13.5701 (3,9,4) 11.6924 (3,10,3) 1.35374
(3,9,4): (2,9,4) 3.33041 (3,8,4) -4.21994 (3,9,3) -11.6924 (3,9,5) 10.6150 (3,10,4) 1.96689
(3,9,5): (2,9,5) 3.33297 (3,8,5) -5.09459 (3,9,4) -10.6150 (3,9,6) 10.0828 (3,10,5) 2.29388
(3,9,6): (2,9,6) 3.33330 (3,8,6) -4.48139 (3,9,5) -10.0828 (3,9,7) 9.11696 (3,10,6) 2.11392
(3,9,7): (2,9,7) 3.33333 (3,8,7) -3.35933 (3,9,6) -9.11696 (3,9,8) 7.46257 (3,10,7) 1.68039
(3,9,8): (2,9,8) 3.33333 (3,8,8) -2.37438 (3,9,7) -7.46257 (3,9,9) 5.25531 (3,10,8) 1.24830
(3,9,9): (2,9,9) 3.33333 (3,8,9) -1.72266 (3,9,8) -5.25531 (3,9,10) 2.70621 (3,10,9) 0.938436
(3,9,10): (2,9,10) 3.33333 (3,8,10) -1.40990 (3,9,9) -2.70621 (3,10,10) 0.782780
(3,10,1): (2,10,1) 0.00000 (3,9,1) 0.00000 (3,10,2) 16.5452
(3,10,2): (2,10,2) 2.96587 (3,9,2) -0.672247 (3,10,1) -16.5452 (3,10,3) 14.2516
(3,10,3): (2,10,3) 3.29975 (3,9,3) -1.35374 (3,10,2) -14.2516 (3,10,4) 12.3056
(3,10,4): (2,10,4) 3.33043 (3,9,4) -1.96689 (3,10,3) -12.3056 (3,10,5) 10.9420
(3,10,5): (2,10,5) 3.33308 (3,9,5) -2.29388 (3,10,4) -10.9420 (3,10,6) 9.90282
(3,10,6): (2,10,6) 3.33331 (3,9,6) -2.11392 (3,10,5) -9.90282 (3,10,7) 8.68343
(3,10,7): (2,10,7) 3.33333 (3,9,7) -1.68039 (3,10,6) -8.68343 (3,10,8) 7.03048
(3,10,8): (2,10,8) 3.33333 (3,9,8) -1.24830 (3,10,7) -7.03048 (3,10,9) 4.94545
(3,10,9): (2,10,9) 3.33333 (3,9,9) -0.938436 (3,10,8) -4.94545 (3,10,10) 2.55055
(3,10,10): (2,10,10) 3.33333 (3,9,10) -0.782780 (3,10,9) -2.55055

 WEL PACKAGE (WEL_0) FLOW RATES   PERIOD      3   STEP       10
 -----------------------------------------------
   NUMBER   CELLID                    RATE      
 -----------------------------------------------
     1      (2,5,5)              -500.00000     
 -----------------------------------------------




 RCHA PACKAGE (RCHA_0) FLOW RATES   PERIOD      3   STEP       10
 -----------------------------------------------
   NUMBER   CELLID                    RATE      
 -----------------------------------------------
     1      (1,1,1)               0.0000000     
     2      (1,1,2)               10.000000     
     3      (1,1,3)               10.000000     
     4      (1,1,4)               10.000000     
     5      (1,1,5)               10.000000     
     6      (1,1,6)               10.000000     
     7      (1,1,7)               10.000000     
     8      (1,1,8)               10.000000     
     9      (1,1,9)               10.000000     
     10     (1,1,10)              10.000000     
     11     (1,2,1)               0.0000000     
     12     (1,2,2)               10.000000     
     13     (1,2,3)               10.000000     
     14     (1,2,4)               10.000000     
     15     (1,2,5)               10.000000     
     16     (1,2,6)               10.000000     
     17     (1,2,7)               10.000000     
     18     (1,2,8)               10.000000     
     19     (1,2,9)               10.000000     
     20     (1,2,10)              10.000000     
     21     (1,3,1)               0.0000000     
     22     (1,3,2)               10.000000     
     23     (1,3,3)               10.000000     
     24     (1,3,4)               10.000000     
     25     (1,3,5)               10.000000     
     26     (1,3,6)               10.000000     
     27     (1,3,7)               10.000000     
     28     (1,3,8)               10.000000     
     29     (1,3,9)               10.000000     
     30     (1,3,10)              10.000000     
     31     (1,4,1)               0.0000000     
     32     (1,4,2)               10.000000     
     33     (1,4,3)               10.000000     
     34     (1,4,4)               10.000000     
     35     (1,4,5)               10.000000     
     36     (1,4,6)               10.000000     
     37     (1,4,7)               10.000000     
     38     (1,4,8)               10.000000     
     39     (1,4,9)               10.000000     
     40     (1,4,10)              10.000000     
     41     (1,5,1)               0.0000000     
     42     (1,5,2)               10.000000     
     43     (1,5,3)               10.000000     
     44     (1,5,4)               10.000000     
     45     (1,5,5)               10.000000     
     46     (1,5,6)               10.000000     
     47     (1,5,7)               10.000000     
     48     (1,5,8)               10.000000     
     49     (1,5,9)               10.000000     
     50     (1,5,10)              10.000000     
     51     (1,6,1)               0.0000000     
     52     (1,6,2)               10.000000     
     53     (1,6,3)               10.000000     
     54     (1,6,4)               10.000000     
     55     (1,6,5)               10.000000     
     56     (1,6,6)               10.000000     
     57     (1,6,7)               10.000000     
     58     (1,6,8)               10.000000     
     59     (1,6,9)               10.000000     
     60     (1,6,10)              10.000000     
     61     (1,7,1)               0.0000000     
     62     (1,7,2)               10.000000     
     63     (1,7,3)               10.000000     
     64     (1,7,4)               10.000000     
     65     (1,7,5)               10.000000     
     66     (1,7,6)               10.000000     
     67     (1,7,7)               10.000000     
     68     (1,7,8)               10.000000     
     69     (1,7,9)               10.000000     
     70     (1,7,10)              10.000000     
     71     (1,8,1)               0.0000000     
     72     (1,8,2)               10.000000     
     73     (1,8,3)               10.000000     
     74     (1,8,4)               10.000000     
     75     (1,8,5)               10.000000     
     76     (1,8,6)               10.000000     
     77     (1,8,7)               10.000000     
     78     (1,8,8)               10.000000     
     79     (1,8,9)               10.000000     
     80     (1,8,10)              10.000000     
     81     (1,9,1)               0.0000000     
     82     (1,9,2)               10.000000     
     83     (1,9,3)               10.000000     
     84     (1,9,4)               10.000000     
     85     (1,9,5)               10.000000     
     86     (1,9,6)               10.000000     
     87     (1,9,7)               10.000000     
     88     (1,9,8)               10.000000     
     89     (1,9,9)               10.000000     
     90     (1,9,10)              10.000000     
     91     (1,10,1)              0.0000000     
     92     (1,10,2)              10.000000     
     93     (1,10,3)              10.000000     
     94     (1,10,4)              10.000000     
     95     (1,10,5)              10.000000     
     96     (1,10,6)              10.000000     
     97     (1,10,7)              10.000000     
     98     (1,10,8)              10.000000     
     99     (1,10,9)              10.000000     
    100     (1,10,10)             10.000000     
 -----------------------------------------------




 CHD PACKAGE (CHD_0) FLOW RATES   PERIOD      3   STEP       10
 -----------------------------------------------
   NUMBER   CELLID                    RATE      
 -----------------------------------------------
     1      (1,1,1)              -15.074501     
     2      (1,2,1)              -14.282169     
     3      (1,3,1)              -12.832497     
     4      (1,4,1)              -11.169842     
     5      (1,5,1)              -10.309381     
     6      (1,6,1)              -11.518740     
     7      (1,7,1)              -13.560857     
     8      (1,8,1)              -15.453781     
     9      (1,9,1)              -16.789027     
     10     (1,10,1)             -17.461274     
     11     (2,1,1)              -14.455008     
     12     (2,2,1)              -13.662675     
     13     (2,3,1)              -12.213001     
     14     (2,4,1)              -10.550304     
     15     (2,5,1)              -9.6895062     
     16     (2,6,1)              -10.899202     
     17     (2,7,1)              -12.941361     
     18     (2,8,1)              -14.834287     
     19     (2,9,1)              -16.169534     
     20     (2,10,1)             -16.841781     
     21     (3,1,1)              -14.158421     
     22     (3,2,1)              -13.366089     
     23     (3,3,1)              -11.916418     
     24     (3,4,1)              -10.253762     
     25     (3,5,1)              -9.3933016     
     26     (3,6,1)              -10.602660     
     27     (3,7,1)              -12.644777     
     28     (3,8,1)              -14.537701     
     29     (3,9,1)              -15.872948     
     30     (3,10,1)             -16.545194     
 -----------------------------------------------



1
  HEAD IN LAYER   1 AT END OF TIME STEP  10 IN STRESS PERIOD    3
  ---------------------------------------------------------------------------

                1               2               3               4               5               6               7               8               9              10
 ................................................................................................................................................................
   1      0.00000        0.150745        0.271363        0.375475        0.473650        0.572348        0.665644        0.744170        0.800350        0.829507    
   2      0.00000        0.142822        0.254166        0.348049        0.439794        0.544416        0.647079        0.733184        0.794040        0.825330    
   3      0.00000        0.128325        0.220729        0.289403        0.359762        0.485113        0.611741        0.714113        0.783962        0.819111    
   4      0.00000        0.111698        0.177329        0.195822        0.192692        0.391312        0.567334        0.694231        0.775252        0.814706    
   5      0.00000        0.103094        0.147477        9.307252E-02   -0.165873        0.289348        0.538830        0.686898        0.774776        0.816422    
   6      0.00000        0.115187        0.184001        0.205093        0.203778        0.403383        0.579697        0.706459        0.787199        0.826452    
   7      0.00000        0.135609        0.234659        0.308729        0.382764        0.509946        0.636898        0.738712        0.807775        0.842401    
   8      0.00000        0.154538        0.276602        0.379149        0.476558        0.583519        0.685909        0.770384        0.829454        0.859644    
   9      0.00000        0.167890        0.304360        0.421348        0.527504        0.628333        0.719502        0.794128        0.846681        0.873743    
  10      0.00000        0.174613        0.317897        0.441017        0.550443        0.649472        0.736306        0.806611        0.856065        0.881571    
1
  HEAD IN LAYER   2 AT END OF TIME STEP  10 IN STRESS PERIOD    3
  ---------------------------------------------------------------------------

                1               2               3               4               5               6               7               8               9              10
 ................................................................................................................................................................
   1      0.00000        0.144550        0.264733        0.368811        0.466984        0.565681        0.658977        0.737504        0.793684        0.822840    
   2      0.00000        0.136627        0.247536        0.341385        0.433123        0.537748        0.640413        0.726517        0.787373        0.818664    
   3      0.00000        0.122130        0.214099        0.282728        0.352966        0.478435        0.605074        0.707446        0.777296        0.812444    
   4      0.00000        0.105503        0.170687        0.188901        0.181666        0.384388        0.560656        0.687564        0.768586        0.808040    
   5      0.00000        9.689506E-02    0.140718        8.204960E-02   -0.320111        0.278322        0.532034        0.680227        0.768109        0.809756    
   6      0.00000        0.108992        0.177360        0.198172        0.192752        0.396459        0.573019        0.699792        0.780532        0.819785    
   7      0.00000        0.129414        0.228028        0.302054        0.375969        0.503268        0.630230        0.732045        0.801108        0.835735    
   8      0.00000        0.148343        0.269972        0.372485        0.469888        0.576852        0.679242        0.763718        0.822788        0.852977    
   9      0.00000        0.161695        0.297730        0.414685        0.520838        0.621666        0.712836        0.787461        0.840014        0.867077    
  10      0.00000        0.168418        0.311267        0.434354        0.543777        0.642805        0.729639        0.799944        0.849399        0.874904    
1
  HEAD IN LAYER   3 AT END OF TIME STEP  10 IN STRESS PERIOD    3
  ---------------------------------------------------------------------------

                1               2               3               4               5               6               7               8               9              10
 ................................................................................................................................................................
   1      0.00000        0.141584        0.261433        0.365481        0.463651        0.562348        0.655644        0.734170        0.790350        0.819507    
   2      0.00000        0.133661        0.244237        0.338055        0.429794        0.534416        0.637079        0.723184        0.784040        0.815330    
   3      0.00000        0.119164        0.210800        0.279409        0.349762        0.475113        0.601741        0.704113        0.773962        0.809111    
   4      0.00000        0.102538        0.167399        0.185828        0.182692        0.381312        0.557334        0.684231        0.765252        0.804706    
   5      0.00000        9.393302E-02    0.137547        8.307843E-02   -0.175872        0.279348        0.528830        0.676898        0.764776        0.806422    
   6      0.00000        0.106027        0.174071        0.195099        0.193778        0.393383        0.569697        0.696459        0.777199        0.816452    
   7      0.00000        0.126448        0.224729        0.298734        0.372765        0.499946        0.626898        0.728712        0.797775        0.832401    
   8      0.00000        0.145377        0.266672        0.369155        0.466559        0.573519        0.675909        0.760384        0.819454        0.849644    
   9      0.00000        0.158729        0.294430        0.411354        0.517505        0.618333        0.709502        0.784128        0.836681        0.863743    
  10      0.00000        0.165452        0.307968        0.431023        0.540444        0.639472        0.726306        0.796611        0.846065        0.871571    

 HEAD WILL BE SAVED ON UNIT 1019 AT END OF TIME STEP   10, STRESS PERIOD    3


  VOLUME BUDGET FOR ENTIRE MODEL AT END OF TIME STEP   10, STRESS PERIOD   3
  ---------------------------------------------------------------------------------------------------

     CUMULATIVE VOLUME      L**3       RATES FOR THIS TIME STEP      L**3/T          PACKAGE NAME    
     ------------------                 ------------------------                     ----------------

           IN:                                      IN:
           ---                                      ---
              STO-SS =       2.3605E-05                STO-SS =       1.1931E-10     STORAGE                          
              STO-SY =       1.2586E-04                STO-SY =       7.0429E-10     STORAGE                          
                 WEL =           0.0000                   WEL =           0.0000     WEL_0                            
                RCHA =      180900.0000                  RCHA =         900.0000     RCHA_0                           
                 CHD =           0.0000                   CHD =           0.0000     CHD_0                            

            TOTAL IN =      180900.0001              TOTAL IN =         900.0000

          OUT:                                     OUT:
          ----                                     ----
              STO-SS =           0.0000                STO-SS =           0.0000     STORAGE                          
              STO-SY =           0.0000                STO-SY =           0.0000     STORAGE                          
                 WEL =      100500.0000                   WEL =         500.0000     WEL_0                            
                RCHA =           0.0000                  RCHA =           0.0000     RCHA_0                           
                 CHD =       80400.0012                   CHD =         400.0000     CHD_0                            

           TOTAL OUT =      180900.0012             TOTAL OUT =         900.0000

            IN - OUT =      -1.0417E-03              IN - OUT =      -4.7619E-08

 PERCENT DISCREPANCY =          -0.00     PERCENT DISCREPANCY =          -0.00




         TIME SUMMARY AT END OF TIME STEP   10 IN STRESS PERIOD    3
                    SECONDS     MINUTES      HOURS       DAYS        YEARS
                    -----------------------------------------------------------
   TIME STEP LENGTH 8.64000E+05  14400.      240.00      10.000     2.73785E-02
 STRESS PERIOD TIME 8.64000E+06 1.44000E+05  2400.0      100.00     0.27379    
         TOTAL TIME 1.73664E+07 2.89440E+05  4824.0      201.00     0.55031    


end timestep

