                                   MODFLOW 6
                U.S. GEOLOGICAL SURVEY MODULAR HYDROLOGIC MODEL
                          GROUNDWATER FLOW MODEL (GWF)
                            VERSION 6.6.2 05/12/2025

   MODFLOW 6 compiled May 24 2025 11:41:46 with Intel(R) Fortran Intel(R) 64
   Compiler Classic for applications running on Intel(R) 64, Version 2021.7.0
                             Build 20220726_000000

This software has been approved for release by the U.S. Geological 
Survey (USGS). Although the software has been subjected to rigorous 
review, the USGS reserves the right to update the software as needed 
pursuant to further analysis and review. No warranty, expressed or 
implied, is made by the USGS or the U.S. Government as to the 
functionality of the software and related material nor shall the 
fact of release constitute any such warranty. Furthermore, the 
software is released on condition that neither the USGS nor the U.S. 
Government shall be held liable for any damages resulting from its 
authorized or unauthorized use. Also refer to the USGS Water 
Resources Software User Rights Notice for complete use, copyright, 
and distribution information.


As a work of the United States Government, this USGS product is 
in the public domain within the United States. You can copy, 
modify, distribute, and perform the work, even for commercial 
purposes, all without asking permission. Additionally, USGS 
waives copyright and related rights in the work worldwide 
through CC0 1.0 Universal Public Domain Dedication 
(https://creativecommons.org/publicdomain/zero/1.0/).

The following GNU Lesser General Public License (LGPL) libraries
are used in this USGS product:

    SPARSKIT version 2.0
      ilut, luson, and qsplit 
      (https://www-users.cse.umn.edu/~saad/software/SPARSKIT/)

    RCM - Reverse Cuthill McKee Ordering
      (https://people.math.sc.edu/Burkardt/f_src/rcm/rcm.html)

    BLAS - Basic Linear Algebra Subprograms Level 1
      (https://people.math.sc.edu/Burkardt/f_src/blas1_d/blas1_d.html)

    SPARSEKIT - Sparse Matrix Utility Package
      amux, dperm, dvperm, rperm, and cperm
      (https://people.sc.fsu.edu/~jburkardt/f77_src/sparsekit/sparsekit.html)

The following BSD-3 License libraries are used in this USGS product:

    Modern Fortran DAG Library
      Copyright (c) 2018, Jacob Williams
      All rights reserved.
      (https://github.com/jacobwilliams/daglib)

MODFLOW 6 compiler options: -Ilinux/obj_mf6 -O2 -no-heap-arrays -fpe0
-traceback -Qdiag-disable:7416 -Qdiag-disable:7025 -Qdiag-disable:5268 -fpp
-module linux/mod_mf6/ -c -o linux/obj_mf6/compilerversion.o

System command used to initiate simulation:
/home/danilopezmella/flopy_expert/bin/mf6

MODFLOW was compiled using uniform precision.

Real Variables
  KIND: 8
  TINY (smallest non-zero value):    2.225074-308
  HUGE (largest value):    1.797693+308
  PRECISION: 15
  SIZE IN BITS: 64

Integer Variables
  KIND: 4
  HUGE (largest value): 2147483647
  SIZE IN BITS: 32

Long Integer Variables
  KIND: 8
  HUGE (largest value): 9223372036854775807
  SIZE IN BITS: 64

Logical Variables
  KIND: 4
  SIZE IN BITS: 32
 
 NAMEFILE OPTIONS:
    NEWTON-RAPHSON method enabled for the model.
    NEWTON-RAPHSON UNDER-RELAXATION based on the bottom elevation of the model will be applied to the model.
    STRESS PACKAGE INPUT WILL BE PRINTED FOR ALL MODEL STRESS PACKAGES
 END NAMEFILE OPTIONS:

 DIS -- STRUCTURED GRID DISCRETIZATION PACKAGE, VERSION 2 : 3/27/2014 - INPUT READ FROM MEMPATH: __INPUT__/LAKECONNECT/DIS                         


 NPF -- NODE PROPERTY FLOW PACKAGE, VERSION 1, 3/30/2015 INPUT READ FROM MEMPATH: __INPUT__/LAKECONNECT/NPF                         


 IC -- Initial Conditions Package, Version 8, 3/28/2015 input read from mempath: __INPUT__/LAKECONNECT/IC                          


 Setting Discretization Options
 End Setting Discretization Options

 Setting Discretization Dimensions
    NLAY = 5
    NROW = 17
    NCOL = 17
 End Setting Discretization Dimensions

 Setting Discretization Griddata
    DELR set from input file
    DELC set from input file
    TOP set from input file
    BOTM set from input file
    IDOMAIN set from input file
 End Setting Discretization Griddata


 The specified IDOMAIN results in a reduced number of cells.
 Number of user nodes: 1445
 Number of nodes in solution: 1411


 Setting NPF Options
 End Setting NPF Options

 Setting NPF Griddata
    ICELLTYPE set from input file
    K set from input file
    K33 set from input file
    K22 not provided.  Setting K22 = K.
 End Setting NPF Griddata


 RCH   -- RCH PACKAGE, VERSION 8, 2/22/2014 INPUT READ FROM MEMPATH: __INPUT__/LAKECONNECT/RCHA_0                      

 PROCESSING RCH BASE OPTIONS
 END OF RCH BASE OPTIONS

 PROCESSING RCHA OPTIONS
    RECHARGE INPUT WILL BE READ AS ARRAY(S).
 END OF RCHA OPTIONS

 EVT   -- EVT PACKAGE, VERSION 8, 2/22/2014 INPUT READ FROM MEMPATH: __INPUT__/LAKECONNECT/EVTA_0                      

 PROCESSING EVT BASE OPTIONS
 END OF EVT BASE OPTIONS

 PROCESSING EVTA OPTIONS
    EVAPOTRANSPIRATION INPUT WILL BE READ AS ARRAYS.
 END OF EVTA OPTIONS

 CHD   -- CHD PACKAGE, VERSION 8, 2/22/2014 INPUT READ FROM MEMPATH: __INPUT__/LAKECONNECT/CHD_0                       

 PROCESSING CHD BASE OPTIONS
 END OF CHD BASE OPTIONS

 PROCESSING CHD BASE DIMENSIONS
    MAXBOUND =     320
 END OF CHD BASE DIMENSIONS

 LAK   -- LAK PACKAGE, VERSION 8, 2/22/2014 INPUT READ FROM UNIT 1013
 # File generated by Flopy version 3.9.3 on 08/07/2025 at 08:26:29.

 PROCESSING LAK OPTIONS
    LAK STAGES WILL BE PRINTED TO LISTING FILE.
    LAK FLOWS WILL BE PRINTED TO LISTING FILE.
 END OF LAK OPTIONS

 PROCESSING LAK DIMENSIONS
    NLAKES =       1
 END OF LAK DIMENSIONS

 PROCESSING LAK PACKAGEDATA
 END OF LAK PACKAGEDATA


    MAXBOUND =      57

 PROCESSING LAK LAKE_CONNECTIONS
 END OF LAK CONNECTIONDATA
    STRT set from input file
    BINARY GRID INFORMATION WILL BE WRITTEN TO:
      UNIT NUMBER: 1016
      FILE NAME: lakeconnect.dis.grb

 OPENED lakeconnect.dis.grb
 FILE TYPE:DATA(BINARY)   UNIT 1016   STATUS:REPLACE             
 FORMAT:UNFORMATTED            ACCESS:STREAM              
 ACTION:READWRITE           

      THE LAST TIME STEP WILL BE PRINTED
      THE LAST TIME STEP WILL BE PRINTED
 # File generated by Flopy version 3.9.3 on 08/07/2025 at 08:26:29.

 PROCESSING OC OPTIONS

    BUDGET INFORMATION WILL BE WRITTEN TO:
      UNIT NUMBER: 1017
      FILE NAME: lakeconnect.cbc

 OPENED lakeconnect.cbc
 FILE TYPE:DATA(BINARY)   UNIT 1017   STATUS:REPLACE             
 FORMAT:UNFORMATTED            ACCESS:STREAM              
 ACTION:READWRITE           

    HEAD INFORMATION WILL BE WRITTEN TO:
      UNIT NUMBER: 1018
      FILE NAME: lakeconnect.hds

 OPENED lakeconnect.hds
 FILE TYPE:DATA(BINARY)   UNIT 1018   STATUS:REPLACE             
 FORMAT:UNFORMATTED            ACCESS:STREAM              
 ACTION:READWRITE           

 END OF OC OPTIONS


                             INTERFACE CONDUCTANCE BETWEEN LAKE AND AQUIFER CELLS

       LAKE CONNECTION                 CONNECTION    LAKEBED              C O N D U C T A N C E S        
     NUMBER     NUMBER CELLID          DIRECTION    LEAKANCE        LAKEBED        AQUIFER       COMBINED
 ------------------------------------------------------------------------------------------------------------
          1          1 (1,6,7)         HORIZONTAL    0.10000         50.000         30.000         18.750    
          1          2 (1,7,6)         HORIZONTAL    0.10000         50.000         30.000         18.750    
          1          3 (2,7,7)         VERTICAL      0.10000         25000.        0.15000E+07     24590.    
          1          4 (1,6,8)         HORIZONTAL    0.10000         50.000         30.000         18.750    
          1          5 (2,7,8)         VERTICAL      0.10000         25000.        0.15000E+07     24590.    
          1          6 (1,6,9)         HORIZONTAL    0.10000         50.000         30.000         18.750    
          1          7 (2,7,9)         VERTICAL      0.10000         25000.        0.15000E+07     24590.    
          1          8 (1,6,10)        HORIZONTAL    0.10000         50.000         30.000         18.750    
          1          9 (2,7,10)        VERTICAL      0.10000         25000.        0.15000E+07     24590.    
          1         10 (1,6,11)        HORIZONTAL    0.10000         50.000         30.000         18.750    
          1         11 (1,7,12)        HORIZONTAL    0.10000         50.000         30.000         18.750    
          1         12 (2,7,11)        VERTICAL      0.10000         25000.        0.15000E+07     24590.    
          1         13 (1,8,6)         HORIZONTAL    0.10000         50.000         30.000         18.750    
          1         14 (2,8,7)         VERTICAL      0.10000         25000.        0.15000E+07     24590.    
          1         15 (1,8,12)        HORIZONTAL    0.10000         50.000         30.000         18.750    
          1         16 (2,8,11)        VERTICAL      0.10000         25000.        0.15000E+07     24590.    
          1         17 (1,9,6)         HORIZONTAL    0.10000         50.000         30.000         18.750    
          1         18 (2,9,7)         VERTICAL      0.10000         25000.        0.15000E+07     24590.    
          1         19 (1,9,12)        HORIZONTAL    0.10000         50.000         30.000         18.750    
          1         20 (2,9,11)        VERTICAL      0.10000         25000.        0.15000E+07     24590.    
          1         21 (1,10,6)        HORIZONTAL    0.10000         50.000         30.000         18.750    
          1         22 (2,10,7)        VERTICAL      0.10000         25000.        0.15000E+07     24590.    
          1         23 (1,10,12)       HORIZONTAL    0.10000         50.000         30.000         18.750    
          1         24 (2,10,11)       VERTICAL      0.10000         25000.        0.15000E+07     24590.    
          1         25 (1,11,6)        HORIZONTAL    0.10000         50.000         30.000         18.750    
          1         26 (1,12,7)        HORIZONTAL    0.10000         50.000         30.000         18.750    
          1         27 (2,11,7)        VERTICAL      0.10000         25000.        0.15000E+07     24590.    
          1         28 (1,12,8)        HORIZONTAL    0.10000         50.000         30.000         18.750    
          1         29 (2,11,8)        VERTICAL      0.10000         25000.        0.15000E+07     24590.    
          1         30 (1,12,9)        HORIZONTAL    0.10000         50.000         30.000         18.750    
          1         31 (2,11,9)        VERTICAL      0.10000         25000.        0.15000E+07     24590.    
          1         32 (1,12,10)       HORIZONTAL    0.10000         50.000         30.000         18.750    
          1         33 (2,11,10)       VERTICAL      0.10000         25000.        0.15000E+07     24590.    
          1         34 (1,11,12)       HORIZONTAL    0.10000         50.000         30.000         18.750    
          1         35 (1,12,11)       HORIZONTAL    0.10000         50.000         30.000         18.750    
          1         36 (2,11,11)       VERTICAL      0.10000         25000.        0.15000E+07     24590.    
          1         37 (2,7,8)         HORIZONTAL    0.10000         50.000         60.000         27.273    
          1         38 (2,8,7)         HORIZONTAL    0.10000         50.000         60.000         27.273    
          1         39 (3,8,8)         VERTICAL      0.10000         25000.        0.15000E+07     24590.    
          1         40 (2,7,9)         HORIZONTAL    0.10000         50.000         60.000         27.273    
          1         41 (3,8,9)         VERTICAL      0.10000         25000.        0.15000E+07     24590.    
          1         42 (2,7,10)        HORIZONTAL    0.10000         50.000         60.000         27.273    
          1         43 (2,8,11)        HORIZONTAL    0.10000         50.000         60.000         27.273    
          1         44 (3,8,10)        VERTICAL      0.10000         25000.        0.15000E+07     24590.    
          1         45 (2,9,7)         HORIZONTAL    0.10000         50.000         60.000         27.273    
          1         46 (3,9,8)         VERTICAL      0.10000         25000.        0.15000E+07     24590.    
          1         47 (3,9,9)         VERTICAL      0.10000         25000.        0.15000E+07     24590.    
          1         48 (2,9,11)        HORIZONTAL    0.10000         50.000         60.000         27.273    
          1         49 (3,9,10)        VERTICAL      0.10000         25000.        0.15000E+07     24590.    
          1         50 (2,10,7)        HORIZONTAL    0.10000         50.000         60.000         27.273    
          1         51 (2,11,8)        HORIZONTAL    0.10000         50.000         60.000         27.273    
          1         52 (3,10,8)        VERTICAL      0.10000         25000.        0.15000E+07     24590.    
          1         53 (2,11,9)        HORIZONTAL    0.10000         50.000         60.000         27.273    
          1         54 (3,10,9)        VERTICAL      0.10000         25000.        0.15000E+07     24590.    
          1         55 (2,10,11)       HORIZONTAL    0.10000         50.000         60.000         27.273    
          1         56 (2,11,10)       HORIZONTAL    0.10000         50.000         60.000         27.273    
          1         57 (3,10,10)       VERTICAL      0.10000         25000.        0.15000E+07     24590.    
 ------------------------------------------------------------------------------------------------------------
 IF VERTICAL CONNECTION, CONDUCTANCE (L^2/T) IS BETWEEN AQUIFER CELL AND OVERLYING LAKE CELL.
 IF HORIZONTAL CONNECTION, CONDUCTANCES ARE PER UNIT SATURATED THICKNESS (L/T).
 IF EMBEDDED CONNECTION, CONDUCTANCES ARE PER UNIT EXCHANGE AREA (1/T).


 STAGE/VOLUME RELATION FOR LAKE            1

          STAGE  SURFACE AREA   WETTED AREA   CONDUCTANCE        VOLUME
 ----------------------------------------------------------------------
    0.97000E+02   0.22500E+07   0.22500E+07   0.61475E+06   0.00000E+00
    0.99687E+02   0.22500E+07   0.22661E+07   0.61563E+06   0.60450E+07
    0.10237E+03   0.22500E+07   0.22822E+07   0.61651E+06   0.12090E+08
    0.10506E+03   0.22500E+07   0.22984E+07   0.61739E+06   0.18135E+08
    0.10775E+03   0.62500E+07   0.63175E+07   0.61831E+06   0.27167E+08
    0.11043E+03   0.62500E+07   0.63443E+07   0.61931E+06   0.43958E+08
    0.11312E+03   0.62500E+07   0.63712E+07   0.62032E+06   0.60750E+08
    0.11581E+03   0.62500E+07   0.63981E+07   0.62133E+06   0.77542E+08
    0.11849E+03   0.62500E+07   0.64249E+07   0.62234E+06   0.94333E+08
    0.12118E+03   0.62500E+07   0.64518E+07   0.62334E+06   0.11113E+09
    0.12387E+03   0.62500E+07   0.64787E+07   0.62435E+06   0.12792E+09
    0.12655E+03   0.62500E+07   0.65055E+07   0.62536E+06   0.14471E+09
    0.12924E+03   0.62500E+07   0.65324E+07   0.62637E+06   0.16150E+09
    0.13193E+03   0.62500E+07   0.65593E+07   0.62737E+06   0.17829E+09
    0.13461E+03   0.62500E+07   0.65861E+07   0.62838E+06   0.19508E+09
    0.13730E+03   0.62500E+07   0.66130E+07   0.62939E+06   0.21188E+09
    0.13999E+03   0.62500E+07   0.66399E+07   0.63040E+06   0.22867E+09
    0.14267E+03   0.62500E+07   0.66667E+07   0.63140E+06   0.24546E+09
    0.14536E+03   0.62500E+07   0.66936E+07   0.63241E+06   0.26225E+09
    0.14805E+03   0.62500E+07   0.67205E+07   0.63342E+06   0.27904E+09
    0.15073E+03   0.62500E+07   0.67473E+07   0.63443E+06   0.29583E+09
    0.15342E+03   0.62500E+07   0.67742E+07   0.63543E+06   0.31263E+09
    0.15611E+03   0.62500E+07   0.68011E+07   0.63644E+06   0.32942E+09
    0.15879E+03   0.62500E+07   0.68279E+07   0.63745E+06   0.34621E+09
    0.16148E+03   0.62500E+07   0.68548E+07   0.63846E+06   0.36300E+09
    0.16417E+03   0.62500E+07   0.68817E+07   0.63946E+06   0.37979E+09
    0.16685E+03   0.62500E+07   0.69085E+07   0.64047E+06   0.39658E+09
    0.16954E+03   0.62500E+07   0.69354E+07   0.64148E+06   0.41338E+09
    0.17223E+03   0.62500E+07   0.69623E+07   0.64249E+06   0.43017E+09
    0.17491E+03   0.62500E+07   0.69891E+07   0.64349E+06   0.44696E+09
    0.17760E+03   0.62500E+07   0.70160E+07   0.64450E+06   0.46375E+09
    0.18029E+03   0.62500E+07   0.70429E+07   0.64551E+06   0.48054E+09
    0.18297E+03   0.62500E+07   0.70697E+07   0.64652E+06   0.49733E+09
    0.18566E+03   0.62500E+07   0.70966E+07   0.64752E+06   0.51413E+09
    0.18835E+03   0.62500E+07   0.71235E+07   0.64853E+06   0.53092E+09
    0.19103E+03   0.62500E+07   0.71503E+07   0.64954E+06   0.54771E+09
    0.19372E+03   0.62500E+07   0.71772E+07   0.65055E+06   0.56450E+09
    0.19641E+03   0.62500E+07   0.72041E+07   0.65155E+06   0.58129E+09
    0.19909E+03   0.62500E+07   0.72309E+07   0.65256E+06   0.59808E+09
    0.20178E+03   0.62500E+07   0.72578E+07   0.65357E+06   0.61488E+09
    0.20447E+03   0.62500E+07   0.72847E+07   0.65458E+06   0.63167E+09
    0.20715E+03   0.62500E+07   0.73115E+07   0.65558E+06   0.64846E+09
    0.20984E+03   0.62500E+07   0.73384E+07   0.65659E+06   0.66525E+09
    0.21253E+03   0.62500E+07   0.73653E+07   0.65760E+06   0.68204E+09
    0.21521E+03   0.62500E+07   0.73921E+07   0.65861E+06   0.69883E+09
    0.21790E+03   0.62500E+07   0.74190E+07   0.65961E+06   0.71563E+09
    0.22059E+03   0.62500E+07   0.74459E+07   0.66062E+06   0.73242E+09
    0.22327E+03   0.62500E+07   0.74727E+07   0.66163E+06   0.74921E+09
    0.22596E+03   0.62500E+07   0.74996E+07   0.66264E+06   0.76600E+09
    0.22865E+03   0.62500E+07   0.75265E+07   0.66364E+06   0.78279E+09
    0.23133E+03   0.62500E+07   0.75533E+07   0.66465E+06   0.79958E+09
    0.23402E+03   0.62500E+07   0.75802E+07   0.66566E+06   0.81638E+09
    0.23671E+03   0.62500E+07   0.76071E+07   0.66667E+06   0.83317E+09
    0.23939E+03   0.62500E+07   0.76339E+07   0.66767E+06   0.84996E+09
    0.24208E+03   0.62500E+07   0.76608E+07   0.66868E+06   0.86675E+09
    0.24477E+03   0.62500E+07   0.76877E+07   0.66969E+06   0.88354E+09
    0.24745E+03   0.62500E+07   0.77145E+07   0.67070E+06   0.90033E+09
    0.25014E+03   0.62500E+07   0.77414E+07   0.67170E+06   0.91713E+09
    0.25283E+03   0.62500E+07   0.77683E+07   0.67271E+06   0.93392E+09
    0.25551E+03   0.62500E+07   0.77951E+07   0.67372E+06   0.95071E+09
    0.25820E+03   0.62500E+07   0.78220E+07   0.67473E+06   0.96750E+09
    0.26089E+03   0.62500E+07   0.78489E+07   0.67573E+06   0.98429E+09
    0.26357E+03   0.62500E+07   0.78757E+07   0.67674E+06   0.10011E+10
    0.26626E+03   0.62500E+07   0.79026E+07   0.67775E+06   0.10179E+10
    0.26895E+03   0.62500E+07   0.79295E+07   0.67876E+06   0.10347E+10
    0.27163E+03   0.62500E+07   0.79563E+07   0.67976E+06   0.10515E+10
    0.27432E+03   0.62500E+07   0.79832E+07   0.68077E+06   0.10683E+10
    0.27701E+03   0.62500E+07   0.80101E+07   0.68178E+06   0.10850E+10
    0.27969E+03   0.62500E+07   0.80369E+07   0.68279E+06   0.11018E+10
    0.28238E+03   0.62500E+07   0.80638E+07   0.68379E+06   0.11186E+10
    0.28507E+03   0.62500E+07   0.80907E+07   0.68480E+06   0.11354E+10
    0.28775E+03   0.62500E+07   0.81175E+07   0.68581E+06   0.11522E+10
    0.29044E+03   0.62500E+07   0.81444E+07   0.68682E+06   0.11690E+10
    0.29313E+03   0.62500E+07   0.81713E+07   0.68782E+06   0.11858E+10
    0.29581E+03   0.62500E+07   0.81981E+07   0.68883E+06   0.12026E+10
    0.29850E+03   0.62500E+07   0.82250E+07   0.68984E+06   0.12194E+10
    0.30119E+03   0.62500E+07   0.82519E+07   0.69085E+06   0.12362E+10
    0.30387E+03   0.62500E+07   0.82787E+07   0.69185E+06   0.12530E+10
    0.30656E+03   0.62500E+07   0.83056E+07   0.69286E+06   0.12698E+10
    0.30925E+03   0.62500E+07   0.83325E+07   0.69387E+06   0.12865E+10
    0.31193E+03   0.62500E+07   0.83593E+07   0.69488E+06   0.13033E+10
    0.31462E+03   0.62500E+07   0.83862E+07   0.69588E+06   0.13201E+10
    0.31731E+03   0.62500E+07   0.84131E+07   0.69689E+06   0.13369E+10
    0.31999E+03   0.62500E+07   0.84399E+07   0.69790E+06   0.13537E+10
    0.32268E+03   0.62500E+07   0.84668E+07   0.69891E+06   0.13705E+10
    0.32537E+03   0.62500E+07   0.84937E+07   0.69991E+06   0.13873E+10
    0.32805E+03   0.62500E+07   0.85205E+07   0.70092E+06   0.14041E+10
    0.33074E+03   0.62500E+07   0.85474E+07   0.70193E+06   0.14209E+10
    0.33343E+03   0.62500E+07   0.85743E+07   0.70294E+06   0.14377E+10
    0.33611E+03   0.62500E+07   0.86011E+07   0.70394E+06   0.14545E+10
    0.33880E+03   0.62500E+07   0.86280E+07   0.70495E+06   0.14713E+10
    0.34149E+03   0.62500E+07   0.86549E+07   0.70596E+06   0.14880E+10
    0.34417E+03   0.62500E+07   0.86817E+07   0.70697E+06   0.15048E+10
    0.34686E+03   0.62500E+07   0.87086E+07   0.70797E+06   0.15216E+10
    0.34955E+03   0.62500E+07   0.87355E+07   0.70898E+06   0.15384E+10
    0.35223E+03   0.62500E+07   0.87623E+07   0.70999E+06   0.15552E+10
    0.35492E+03   0.62500E+07   0.87892E+07   0.71100E+06   0.15720E+10
    0.35761E+03   0.62500E+07   0.88161E+07   0.71200E+06   0.15888E+10
    0.36029E+03   0.62500E+07   0.88429E+07   0.71301E+06   0.16056E+10
    0.36298E+03   0.62500E+07   0.88698E+07   0.71402E+06   0.16224E+10
    0.36567E+03   0.62500E+07   0.88967E+07   0.71503E+06   0.16392E+10
    0.36835E+03   0.62500E+07   0.89235E+07   0.71603E+06   0.16560E+10
    0.37104E+03   0.62500E+07   0.89504E+07   0.71704E+06   0.16728E+10
    0.37373E+03   0.62500E+07   0.89773E+07   0.71805E+06   0.16895E+10
    0.37641E+03   0.62500E+07   0.90041E+07   0.71906E+06   0.17063E+10
    0.37910E+03   0.62500E+07   0.90310E+07   0.72006E+06   0.17231E+10
    0.38179E+03   0.62500E+07   0.90579E+07   0.72107E+06   0.17399E+10
    0.38447E+03   0.62500E+07   0.90847E+07   0.72208E+06   0.17567E+10
    0.38716E+03   0.62500E+07   0.91116E+07   0.72309E+06   0.17735E+10
    0.38985E+03   0.62500E+07   0.91385E+07   0.72409E+06   0.17903E+10
    0.39253E+03   0.62500E+07   0.91653E+07   0.72510E+06   0.18071E+10
    0.39522E+03   0.62500E+07   0.91922E+07   0.72611E+06   0.18239E+10
    0.39791E+03   0.62500E+07   0.92191E+07   0.72712E+06   0.18407E+10
    0.40059E+03   0.62500E+07   0.92459E+07   0.72812E+06   0.18575E+10
    0.40328E+03   0.62500E+07   0.92728E+07   0.72913E+06   0.18743E+10
    0.40597E+03   0.62500E+07   0.92997E+07   0.73014E+06   0.18910E+10
    0.40865E+03   0.62500E+07   0.93265E+07   0.73115E+06   0.19078E+10
    0.41134E+03   0.62500E+07   0.93534E+07   0.73215E+06   0.19246E+10
    0.41403E+03   0.62500E+07   0.93803E+07   0.73316E+06   0.19414E+10
    0.41671E+03   0.62500E+07   0.94071E+07   0.73417E+06   0.19582E+10
    0.41940E+03   0.62500E+07   0.94340E+07   0.73518E+06   0.19750E+10
    0.42209E+03   0.62500E+07   0.94609E+07   0.73618E+06   0.19918E+10
    0.42477E+03   0.62500E+07   0.94877E+07   0.73719E+06   0.20086E+10
    0.42746E+03   0.62500E+07   0.95146E+07   0.73820E+06   0.20254E+10
    0.43015E+03   0.62500E+07   0.95415E+07   0.73921E+06   0.20422E+10
    0.43283E+03   0.62500E+07   0.95683E+07   0.74021E+06   0.20590E+10
    0.43552E+03   0.62500E+07   0.95952E+07   0.74122E+06   0.20758E+10
    0.43821E+03   0.62500E+07   0.96221E+07   0.74223E+06   0.20925E+10
    0.44089E+03   0.62500E+07   0.96489E+07   0.74324E+06   0.21093E+10
    0.44358E+03   0.62500E+07   0.96758E+07   0.74424E+06   0.21261E+10
    0.44627E+03   0.62500E+07   0.97027E+07   0.74525E+06   0.21429E+10
    0.44895E+03   0.62500E+07   0.97295E+07   0.74626E+06   0.21597E+10
    0.45164E+03   0.62500E+07   0.97564E+07   0.74727E+06   0.21765E+10
    0.45433E+03   0.62500E+07   0.97833E+07   0.74827E+06   0.21933E+10
    0.45701E+03   0.62500E+07   0.98101E+07   0.74928E+06   0.22101E+10
    0.45970E+03   0.62500E+07   0.98370E+07   0.75029E+06   0.22269E+10
    0.46239E+03   0.62500E+07   0.98639E+07   0.75130E+06   0.22437E+10
    0.46507E+03   0.62500E+07   0.98907E+07   0.75230E+06   0.22605E+10
    0.46776E+03   0.62500E+07   0.99176E+07   0.75331E+06   0.22773E+10
    0.47045E+03   0.62500E+07   0.99445E+07   0.75432E+06   0.22940E+10
    0.47313E+03   0.62500E+07   0.99713E+07   0.75533E+06   0.23108E+10
    0.47582E+03   0.62500E+07   0.99982E+07   0.75633E+06   0.23276E+10
    0.47851E+03   0.62500E+07   0.10025E+08   0.75734E+06   0.23444E+10
    0.48119E+03   0.62500E+07   0.10052E+08   0.75835E+06   0.23612E+10
    0.48388E+03   0.62500E+07   0.10079E+08   0.75936E+06   0.23780E+10
    0.48657E+03   0.62500E+07   0.10106E+08   0.76036E+06   0.23948E+10
    0.48925E+03   0.62500E+07   0.10133E+08   0.76137E+06   0.24116E+10
    0.49194E+03   0.62500E+07   0.10159E+08   0.76238E+06   0.24284E+10
    0.49463E+03   0.62500E+07   0.10186E+08   0.76339E+06   0.24452E+10
    0.49731E+03   0.62500E+07   0.10213E+08   0.76439E+06   0.24620E+10
    0.50000E+03   0.62500E+07   0.10240E+08   0.76540E+06   0.24788E+10
 ----------------------------------------------------------------------


 STAGE/VOLUME RELATION FOR LAKE            1

                                 CALCULATED         STAGE
          STAGE        VOLUME         STAGE    DIFFERENCE
 --------------------------------------------------------
    0.94313E+02   0.00000E+00   0.97000E+02  -0.26867E+01
    0.97000E+02   0.00000E+00   0.97000E+02   0.00000E+00
    0.99687E+02   0.60450E+07   0.99687E+02   0.00000E+00
    0.10237E+03   0.12090E+08   0.10237E+03   0.00000E+00
    0.10506E+03   0.18135E+08   0.10506E+03   0.00000E+00
    0.10775E+03   0.27167E+08   0.10775E+03   0.00000E+00
    0.11043E+03   0.43958E+08   0.11043E+03   0.00000E+00
    0.11312E+03   0.60750E+08   0.11312E+03   0.00000E+00
    0.11581E+03   0.77542E+08   0.11581E+03  -0.14211E-13
    0.11849E+03   0.94333E+08   0.11849E+03   0.00000E+00
    0.12118E+03   0.11113E+09   0.12118E+03   0.00000E+00
    0.12387E+03   0.12792E+09   0.12387E+03  -0.14211E-13
    0.12655E+03   0.14471E+09   0.12655E+03   0.00000E+00
    0.12924E+03   0.16150E+09   0.12924E+03   0.00000E+00
    0.13193E+03   0.17829E+09   0.13193E+03   0.00000E+00
    0.13461E+03   0.19508E+09   0.13461E+03   0.00000E+00
    0.13730E+03   0.21188E+09   0.13730E+03   0.00000E+00
    0.13999E+03   0.22867E+09   0.13999E+03   0.00000E+00
    0.14267E+03   0.24546E+09   0.14267E+03   0.00000E+00
    0.14536E+03   0.26225E+09   0.14536E+03   0.00000E+00
    0.14805E+03   0.27904E+09   0.14805E+03   0.00000E+00
    0.15073E+03   0.29583E+09   0.15073E+03   0.00000E+00
    0.15342E+03   0.31263E+09   0.15342E+03   0.00000E+00
    0.15611E+03   0.32942E+09   0.15611E+03  -0.28422E-13
    0.15879E+03   0.34621E+09   0.15879E+03   0.00000E+00
    0.16148E+03   0.36300E+09   0.16148E+03   0.00000E+00
    0.16417E+03   0.37979E+09   0.16417E+03   0.00000E+00
    0.16685E+03   0.39658E+09   0.16685E+03   0.28422E-13
    0.16954E+03   0.41338E+09   0.16954E+03   0.00000E+00
    0.17223E+03   0.43017E+09   0.17223E+03  -0.28422E-13
    0.17491E+03   0.44696E+09   0.17491E+03   0.28422E-13
    0.17760E+03   0.46375E+09   0.17760E+03   0.28422E-13
    0.18029E+03   0.48054E+09   0.18029E+03  -0.28422E-13
    0.18297E+03   0.49733E+09   0.18297E+03   0.28422E-13
    0.18566E+03   0.51413E+09   0.18566E+03   0.28422E-13
    0.18835E+03   0.53092E+09   0.18835E+03  -0.28422E-13
    0.19103E+03   0.54771E+09   0.19103E+03   0.00000E+00
    0.19372E+03   0.56450E+09   0.19372E+03   0.00000E+00
    0.19641E+03   0.58129E+09   0.19641E+03  -0.28422E-13
    0.19909E+03   0.59808E+09   0.19909E+03   0.28422E-13
    0.20178E+03   0.61488E+09   0.20178E+03   0.00000E+00
    0.20447E+03   0.63167E+09   0.20447E+03   0.00000E+00
    0.20715E+03   0.64846E+09   0.20715E+03   0.28422E-13
    0.20984E+03   0.66525E+09   0.20984E+03   0.00000E+00
    0.21253E+03   0.68204E+09   0.21253E+03   0.00000E+00
    0.21521E+03   0.69883E+09   0.21521E+03  -0.28422E-13
    0.21790E+03   0.71563E+09   0.21790E+03   0.00000E+00
    0.22059E+03   0.73242E+09   0.22059E+03   0.00000E+00
    0.22327E+03   0.74921E+09   0.22327E+03  -0.28422E-13
    0.22596E+03   0.76600E+09   0.22596E+03   0.00000E+00
    0.22865E+03   0.78279E+09   0.22865E+03   0.28422E-13
    0.23133E+03   0.79958E+09   0.23133E+03  -0.56843E-13
    0.23402E+03   0.81638E+09   0.23402E+03   0.00000E+00
    0.23671E+03   0.83317E+09   0.23671E+03   0.28422E-13
    0.23939E+03   0.84996E+09   0.23939E+03  -0.56843E-13
    0.24208E+03   0.86675E+09   0.24208E+03   0.00000E+00
    0.24477E+03   0.88354E+09   0.24477E+03   0.28422E-13
    0.24745E+03   0.90033E+09   0.24745E+03  -0.56843E-13
    0.25014E+03   0.91713E+09   0.25014E+03   0.00000E+00
    0.25283E+03   0.93392E+09   0.25283E+03   0.28422E-13
    0.25551E+03   0.95071E+09   0.25551E+03  -0.28422E-13
    0.25820E+03   0.96750E+09   0.25820E+03   0.00000E+00
    0.26089E+03   0.98429E+09   0.26089E+03   0.56843E-13
    0.26357E+03   0.10011E+10   0.26357E+03  -0.56843E-13
    0.26626E+03   0.10179E+10   0.26626E+03   0.56843E-13
    0.26895E+03   0.10347E+10   0.26895E+03   0.56843E-13
    0.27163E+03   0.10515E+10   0.27163E+03  -0.56843E-13
    0.27432E+03   0.10683E+10   0.27432E+03   0.56843E-13
    0.27701E+03   0.10850E+10   0.27701E+03   0.00000E+00
    0.27969E+03   0.11018E+10   0.27969E+03   0.00000E+00
    0.28238E+03   0.11186E+10   0.28238E+03   0.00000E+00
    0.28507E+03   0.11354E+10   0.28507E+03   0.56843E-13
    0.28775E+03   0.11522E+10   0.28775E+03  -0.56843E-13
    0.29044E+03   0.11690E+10   0.29044E+03   0.00000E+00
    0.29313E+03   0.11858E+10   0.29313E+03   0.56843E-13
    0.29581E+03   0.12026E+10   0.29581E+03  -0.56843E-13
    0.29850E+03   0.12194E+10   0.29850E+03   0.00000E+00
    0.30119E+03   0.12362E+10   0.30119E+03   0.56843E-13
    0.30387E+03   0.12530E+10   0.30387E+03   0.00000E+00
    0.30656E+03   0.12698E+10   0.30656E+03   0.00000E+00
    0.30925E+03   0.12865E+10   0.30925E+03   0.56843E-13
    0.31193E+03   0.13033E+10   0.31193E+03   0.00000E+00
    0.31462E+03   0.13201E+10   0.31462E+03   0.00000E+00
    0.31731E+03   0.13369E+10   0.31731E+03   0.56843E-13
    0.31999E+03   0.13537E+10   0.31999E+03   0.00000E+00
    0.32268E+03   0.13705E+10   0.32268E+03   0.00000E+00
    0.32537E+03   0.13873E+10   0.32537E+03   0.56843E-13
    0.32805E+03   0.14041E+10   0.32805E+03   0.00000E+00
    0.33074E+03   0.14209E+10   0.33074E+03   0.00000E+00
    0.33343E+03   0.14377E+10   0.33343E+03  -0.56843E-13
    0.33611E+03   0.14545E+10   0.33611E+03   0.00000E+00
    0.33880E+03   0.14713E+10   0.33880E+03   0.00000E+00
    0.34149E+03   0.14880E+10   0.34149E+03  -0.56843E-13
    0.34417E+03   0.15048E+10   0.34417E+03   0.00000E+00
    0.34686E+03   0.15216E+10   0.34686E+03   0.00000E+00
    0.34955E+03   0.15384E+10   0.34955E+03  -0.11369E-12
    0.35223E+03   0.15552E+10   0.35223E+03   0.00000E+00
    0.35492E+03   0.15720E+10   0.35492E+03   0.56843E-13
    0.35761E+03   0.15888E+10   0.35761E+03  -0.11369E-12
    0.36029E+03   0.16056E+10   0.36029E+03   0.56843E-13
    0.36298E+03   0.16224E+10   0.36298E+03   0.56843E-13
    0.36567E+03   0.16392E+10   0.36567E+03  -0.11369E-12
    0.36835E+03   0.16560E+10   0.36835E+03   0.00000E+00
    0.37104E+03   0.16728E+10   0.37104E+03   0.00000E+00
    0.37373E+03   0.16895E+10   0.37373E+03  -0.11369E-12
    0.37641E+03   0.17063E+10   0.37641E+03   0.56843E-13
    0.37910E+03   0.17231E+10   0.37910E+03   0.00000E+00
    0.38179E+03   0.17399E+10   0.38179E+03  -0.11369E-12
    0.38447E+03   0.17567E+10   0.38447E+03   0.00000E+00
    0.38716E+03   0.17735E+10   0.38716E+03   0.00000E+00
    0.38985E+03   0.17903E+10   0.38985E+03  -0.11369E-12
    0.39253E+03   0.18071E+10   0.39253E+03   0.56843E-13
    0.39522E+03   0.18239E+10   0.39522E+03   0.00000E+00
    0.39791E+03   0.18407E+10   0.39791E+03  -0.11369E-12
    0.40059E+03   0.18575E+10   0.40059E+03   0.00000E+00
    0.40328E+03   0.18743E+10   0.40328E+03   0.00000E+00
    0.40597E+03   0.18910E+10   0.40597E+03  -0.11369E-12
    0.40865E+03   0.19078E+10   0.40865E+03   0.56843E-13
    0.41134E+03   0.19246E+10   0.41134E+03   0.56843E-13
    0.41403E+03   0.19414E+10   0.41403E+03  -0.11369E-12
    0.41671E+03   0.19582E+10   0.41671E+03   0.00000E+00
    0.41940E+03   0.19750E+10   0.41940E+03   0.56843E-13
    0.42209E+03   0.19918E+10   0.42209E+03  -0.11369E-12
    0.42477E+03   0.20086E+10   0.42477E+03   0.00000E+00
    0.42746E+03   0.20254E+10   0.42746E+03   0.56843E-13
    0.43015E+03   0.20422E+10   0.43015E+03  -0.11369E-12
    0.43283E+03   0.20590E+10   0.43283E+03   0.00000E+00
    0.43552E+03   0.20758E+10   0.43552E+03   0.56843E-13
    0.43821E+03   0.20925E+10   0.43821E+03  -0.11369E-12
    0.44089E+03   0.21093E+10   0.44089E+03   0.00000E+00
    0.44358E+03   0.21261E+10   0.44358E+03   0.56843E-13
    0.44627E+03   0.21429E+10   0.44627E+03  -0.56843E-13
    0.44895E+03   0.21597E+10   0.44895E+03   0.00000E+00
    0.45164E+03   0.21765E+10   0.45164E+03   0.00000E+00
    0.45433E+03   0.21933E+10   0.45433E+03  -0.56843E-13
    0.45701E+03   0.22101E+10   0.45701E+03   0.00000E+00
    0.45970E+03   0.22269E+10   0.45970E+03   0.56843E-13
    0.46239E+03   0.22437E+10   0.46239E+03  -0.11369E-12
    0.46507E+03   0.22605E+10   0.46507E+03   0.00000E+00
    0.46776E+03   0.22773E+10   0.46776E+03   0.00000E+00
    0.47045E+03   0.22940E+10   0.47045E+03  -0.56843E-13
    0.47313E+03   0.23108E+10   0.47313E+03   0.00000E+00
    0.47582E+03   0.23276E+10   0.47582E+03   0.56843E-13
    0.47851E+03   0.23444E+10   0.47851E+03   0.00000E+00
    0.48119E+03   0.23612E+10   0.48119E+03   0.11369E-12
    0.48388E+03   0.23780E+10   0.48388E+03   0.00000E+00
    0.48657E+03   0.23948E+10   0.48657E+03  -0.56843E-13
    0.48925E+03   0.24116E+10   0.48925E+03   0.11369E-12
    0.49194E+03   0.24284E+10   0.49194E+03   0.56843E-13
    0.49463E+03   0.24452E+10   0.49463E+03  -0.11369E-12
    0.49731E+03   0.24620E+10   0.49731E+03   0.56843E-13
    0.50000E+03   0.24788E+10   0.50000E+03   0.56843E-13
    0.50269E+03   0.24955E+10   0.50269E+03   0.00000E+00
    0.50537E+03   0.25123E+10   0.50537E+03   0.11369E-12
    0.50806E+03   0.25291E+10   0.50806E+03   0.56843E-13
    0.51075E+03   0.25459E+10   0.51075E+03   0.00000E+00
 --------------------------------------------------------

start timestep kper="1" kstp="1" mode="normal"


 BEGIN READING OUTPUT CONTROL FOR STRESS PERIOD 1
      ALL TIME STEPS WILL BE SAVED
      ALL TIME STEPS WILL BE SAVED
      ALL TIME STEPS WILL BE PRINTED
      ALL TIME STEPS WILL BE PRINTED

 END READING OUTPUT CONTROL FOR STRESS PERIOD 1
 ----------------------------------
  RCH NO.    LAYER    ROW     COL  
 ----------------------------------
     1         1       1       1   
     2         1       1       2   
     3         1       1       3   
     4         1       1       4   
     5         1       1       5   
     6         1       1       6   
     7         1       1       7   
     8         1       1       8   
     9         1       1       9   
     10        1       1      10   
     11        1       1      11   
     12        1       1      12   
     13        1       1      13   
     14        1       1      14   
     15        1       1      15   
     16        1       1      16   
     17        1       1      17   
     18        1       2       1   
     19        1       2       2   
     20        1       2       3   
     21        1       2       4   
     22        1       2       5   
     23        1       2       6   
     24        1       2       7   
     25        1       2       8   
     26        1       2       9   
     27        1       2      10   
     28        1       2      11   
     29        1       2      12   
     30        1       2      13   
     31        1       2      14   
     32        1       2      15   
     33        1       2      16   
     34        1       2      17   
     35        1       3       1   
     36        1       3       2   
     37        1       3       3   
     38        1       3       4   
     39        1       3       5   
     40        1       3       6   
     41        1       3       7   
     42        1       3       8   
     43        1       3       9   
     44        1       3      10   
     45        1       3      11   
     46        1       3      12   
     47        1       3      13   
     48        1       3      14   
     49        1       3      15   
     50        1       3      16   
     51        1       3      17   
     52        1       4       1   
     53        1       4       2   
     54        1       4       3   
     55        1       4       4   
     56        1       4       5   
     57        1       4       6   
     58        1       4       7   
     59        1       4       8   
     60        1       4       9   
     61        1       4      10   
     62        1       4      11   
     63        1       4      12   
     64        1       4      13   
     65        1       4      14   
     66        1       4      15   
     67        1       4      16   
     68        1       4      17   
     69        1       5       1   
     70        1       5       2   
     71        1       5       3   
     72        1       5       4   
     73        1       5       5   
     74        1       5       6   
     75        1       5       7   
     76        1       5       8   
     77        1       5       9   
     78        1       5      10   
     79        1       5      11   
     80        1       5      12   
     81        1       5      13   
     82        1       5      14   
     83        1       5      15   
     84        1       5      16   
     85        1       5      17   
     86        1       6       1   
     87        1       6       2   
     88        1       6       3   
     89        1       6       4   
     90        1       6       5   
     91        1       6       6   
     92        1       6       7   
     93        1       6       8   
     94        1       6       9   
     95        1       6      10   
     96        1       6      11   
     97        1       6      12   
     98        1       6      13   
     99        1       6      14   
    100        1       6      15   
    101        1       6      16   
    102        1       6      17   
    103        1       7       1   
    104        1       7       2   
    105        1       7       3   
    106        1       7       4   
    107        1       7       5   
    108        1       7       6   
    109       -1      -1      -1   
    110       -1      -1      -1   
    111       -1      -1      -1   
    112       -1      -1      -1   
    113       -1      -1      -1   
    114        1       7       7   
    115        1       7       8   
    116        1       7       9   
    117        1       7      10   
    118        1       7      11   
    119        1       7      12   
    120        1       7      13   
    121        1       7      14   
    122        1       7      15   
    123        1       7      16   
    124        1       7      17   
    125        1       8       1   
    126       -1      -1      -1   
    127       -1      -1      -1   
    128       -1      -1      -1   
    129       -1      -1      -1   
    130       -1      -1      -1   
    131        1       8       2   
    132        1       8       3   
    133        1       8       4   
    134        1       8       5   
    135        1       8       6   
    136        1       8       7   
    137        1       8       8   
    138        1       8       9   
    139        1       8      10   
    140        1       8      11   
    141        1       8      12   
    142        1       8      13   
    143       -1      -1      -1   
    144       -1      -1      -1   
    145       -1      -1      -1   
    146       -1      -1      -1   
    147       -1      -1      -1   
    148        1       8      14   
    149        1       8      15   
    150        1       8      16   
    151        1       8      17   
    152        1       9       1   
    153        1       9       2   
    154        1       9       3   
    155        1       9       4   
    156        1       9       5   
    157        1       9       6   
    158        1       9       7   
    159        1       9       8   
    160       -1      -1      -1   
    161       -1      -1      -1   
    162       -1      -1      -1   
    163       -1      -1      -1   
    164       -1      -1      -1   
    165        1       9       9   
    166        1       9      10   
    167        1       9      11   
    168        1       9      12   
    169        1       9      13   
    170        1       9      14   
    171        1       9      15   
    172        1       9      16   
    173        1       9      17   
    174        1      10       1   
    175        1      10       2   
    176        1      10       3   
    177       -1      -1      -1   
    178       -1      -1      -1   
    179       -1      -1      -1   
    180       -1      -1      -1   
    181       -1      -1      -1   
    182        1      10       4   
    183        1      10       5   
    184        1      10       6   
    185        1      10       7   
    186        1      10       8   
    187        1      10       9   
    188        1      10      10   
    189        1      10      11   
    190        1      10      12   
    191        1      10      13   
    192        1      10      14   
    193        1      10      15   
    194        1      10      16   
    195        1      10      17   
    196        1      11       1   
    197        1      11       2   
    198        1      11       3   
    199        1      11       4   
    200        1      11       5   
    201        1      11       6   
    202        1      11       7   
    203        1      11       8   
    204        1      11       9   
    205        1      11      10   
    206        1      11      11   
    207        1      11      12   
    208        1      11      13   
    209        1      11      14   
    210        1      11      15   
    211        1      11      16   
    212        1      11      17   
    213        1      12       1   
    214        1      12       2   
    215        1      12       3   
    216        1      12       4   
    217        1      12       5   
    218        1      12       6   
    219        1      12       7   
    220        1      12       8   
    221        1      12       9   
    222        1      12      10   
    223        1      12      11   
    224        1      12      12   
    225        1      12      13   
    226        1      12      14   
    227        1      12      15   
    228        1      12      16   
    229        1      12      17   
    230        1      13       1   
    231        1      13       2   
    232        1      13       3   
    233        1      13       4   
    234        1      13       5   
    235        1      13       6   
    236        1      13       7   
    237        1      13       8   
    238        1      13       9   
    239        1      13      10   
    240        1      13      11   
    241        1      13      12   
    242        1      13      13   
    243        1      13      14   
    244        1      13      15   
    245        1      13      16   
    246        1      13      17   
    247        1      14       1   
    248        1      14       2   
    249        1      14       3   
    250        1      14       4   
    251        1      14       5   
    252        1      14       6   
    253        1      14       7   
    254        1      14       8   
    255        1      14       9   
    256        1      14      10   
    257        1      14      11   
    258        1      14      12   
    259        1      14      13   
    260        1      14      14   
    261        1      14      15   
    262        1      14      16   
    263        1      14      17   
    264        1      15       1   
    265        1      15       2   
    266        1      15       3   
    267        1      15       4   
    268        1      15       5   
    269        1      15       6   
    270        1      15       7   
    271        1      15       8   
    272        1      15       9   
    273        1      15      10   
    274        1      15      11   
    275        1      15      12   
    276        1      15      13   
    277        1      15      14   
    278        1      15      15   
    279        1      15      16   
    280        1      15      17   
    281        1      16       1   
    282        1      16       2   
    283        1      16       3   
    284        1      16       4   
    285        1      16       5   
    286        1      16       6   
    287        1      16       7   
    288        1      16       8   
    289        1      16       9   
 ----------------------------------


 ----------------------------------
  CHD NO.    LAYER    ROW     COL  
 ----------------------------------
     1         1       1       1   
     2         1       1       2   
     3         1       1       3   
     4         1       1       4   
     5         1       1       5   
     6         1       1       6   
     7         1       1       7   
     8         1       1       8   
     9         1       1       9   
     10        1       1      10   
     11        1       1      11   
     12        1       1      12   
     13        1       1      13   
     14        1       1      14   
     15        1       1      15   
     16        1       1      16   
     17        1       1      17   
     18        1       2       1   
     19        1       2      17   
     20        1       3       1   
     21        1       3      17   
     22        1       4       1   
     23        1       4      17   
     24        1       5       1   
     25        1       5      17   
     26        1       6       1   
     27        1       6      17   
     28        1       7       1   
     29        1       7      12   
     30        1       7      13   
     31        1       8       7   
     32        1       8       8   
     33        1       9       2   
     34        1       9       3   
     35        1       9      14   
     36        1       9      15   
     37        1      10       9   
     38        1      10      10   
     39        1      11       9   
     40        1      11      10   
     41        1      12       9   
     42        1      12      10   
     43        1      13       9   
     44        1      13      10   
     45        1      14       9   
     46        1      14      10   
     47        1      15       9   
     48        1      15      10   
     49        1      15      11   
     50        1      15      12   
     51        1      15      13   
     52        1      15      14   
     53        1      15      15   
     54        1      15      16   
     55        1      15      17   
     56        1      16       1   
     57        1      16       2   
     58        1      16       3   
     59        1      16       4   
     60        1      16       5   
     61        1      16       6   
     62        1      16       7   
     63        1      16       8   
     64        1      16       9   
     65        1      16      10   
     66        1      16      11   
     67        1      16      12   
     68        1      16      13   
     69        1      16      14   
     70        1      16      15   
     71        1      16      16   
     72        1      16      17   
     73        1      17       1   
     74        1      17       2   
     75        1      17       3   
     76        1      17       4   
     77        1      17       5   
     78        1      17       6   
     79        1      17       7   
     80        1      17       8   
     81        1      17       9   
     82        1      17      10   
     83        2       1       9   
     84        2       1      10   
     85        2       2       9   
     86        2       2      10   
     87        2       3       9   
     88        2       3      10   
     89        2       4       9   
     90        2       4      10   
     91        2       5       9   
     92        2       5      10   
     93        2       6       9   
     94        2       6      10   
     95        2       7       6   
     96        2       7       7   
     97        2       8       3   
     98        2       8       4   
     99        2       8      17   
    100        2       9       1   
    101        2       9      17   
    102        2      10       1   
    103        2      10      17   
    104        2      11       1   
    105        2      11      17   
    106        2      12       1   
    107        2      12      17   
    108        2      13       1   
    109        2      13      17   
    110        2      14       1   
    111        2      14      17   
    112        2      15       1   
    113        2      15       2   
    114        2      15       3   
    115        2      15       4   
    116        2      15       5   
    117        2      15       6   
    118        2      15       7   
    119        2      15       8   
    120        2      15       9   
    121        2      15      10   
    122        2      15      11   
    123        2      15      12   
    124        2      15      13   
    125        2      15      14   
    126        2      15      15   
    127        2      15      16   
    128        2      15      17   
    129        2      16       1   
    130        2      16       2   
    131        2      16       3   
    132        2      16       4   
    133        2      16       5   
    134        2      16       6   
    135        2      16       7   
    136        2      16       8   
    137        2      16       9   
    138        2      16      10   
    139        2      16      11   
    140        2      16      12   
    141        2      16      13   
    142        2      16      14   
    143        2      16      15   
    144        2      16      16   
    145        2      16      17   
    146        2      17       1   
    147        2      17      17   
    148        3       1       1   
    149        3       1      17   
    150        3       2       1   
    151        3       2      17   
    152        3       3       1   
    153        3       3      17   
    154        3       4       1   
    155        3       4      17   
    156        3       5       1   
    157        3       5      17   
    158        3       6       1   
    159        3       6      17   
    160        3       7       1   
    161        3       7      17   
    162        3       8       1   
    163        3       8      17   
    164        3       9       1   
    165        3       9      17   
    166        3      10       1   
    167        3      10      17   
    168        3      11       1   
    169        3      11      17   
    170        3      12       1   
    171        3      12      17   
    172        3      13       1   
    173        3      13      17   
    174        3      14       1   
    175        3      14      17   
    176        3      15       1   
    177        3      15       2   
    178        3      15       3   
    179        3      15       4   
    180        3      15       5   
    181        3      15       6   
    182        3      15       7   
    183        3      15       8   
    184        3      15       9   
    185        3      15      10   
    186        3      15      11   
    187        3      15      12   
    188        3      15      13   
    189        3      15      14   
    190        3      15      15   
    191        3      15      16   
    192        3      15      17   
    193        3      16       1   
    194        3      16       2   
    195        3      16       3   
    196        3      16       4   
    197        3      16       5   
    198        3      16       6   
    199        3      16       7   
    200        3      16       8   
    201        3      16       9   
    202        3      16      10   
    203        3      16      11   
    204        3      16      12   
    205        3      16      13   
    206        3      16      14   
    207        3      16      15   
    208        3      16      16   
    209        3      16      17   
    210        3      17       1   
    211        3      17      17   
    212        4       1       1   
    213        4       1      17   
    214        4       2       1   
    215        4       2      17   
    216        4       3       1   
    217        4       3      17   
    218        4       4       1   
    219        4       4      17   
    220        4       5       1   
    221        4       5      17   
    222        4       6       1   
    223        4       6      17   
    224        4       7       1   
    225        4       7      17   
    226        4       8       1   
    227        4       8      17   
    228        4       9       1   
    229        4       9      17   
    230        4      10       1   
    231        4      10      17   
    232        4      11       1   
    233        4      11      17   
    234        4      12       1   
    235        4      12      17   
    236        4      13       1   
    237        4      13      17   
    238        4      14       1   
    239        4      14      17   
    240        4      15       1   
    241        4      15       2   
    242        4      15       3   
    243        4      15       4   
    244        4      15       5   
    245        4      15       6   
    246        4      15       7   
    247        4      15       8   
    248        4      15       9   
    249        4      15      10   
    250        4      15      11   
    251        4      15      12   
    252        4      15      13   
    253        4      15      14   
    254        4      15      15   
    255        4      15      16   
    256        4      15      17   
    257        4      16       1   
    258        4      16       2   
    259        4      16       3   
    260        4      16       4   
    261        4      16       5   
    262        4      16       6   
    263        4      16       7   
    264        4      16       8   
    265        4      16       9   
    266        4      16      10   
    267        4      16      11   
    268        4      16      12   
    269        4      16      13   
    270        4      16      14   
    271        4      16      15   
    272        4      16      16   
    273        4      16      17   
    274        4      17       1   
    275        4      17      17   
    276        5       1       1   
    277        5       1      17   
    278        5       2       1   
    279        5       2      17   
    280        5       3       1   
    281        5       3      17   
    282        5       4       1   
    283        5       4      17   
    284        5       5       1   
    285        5       5      17   
    286        5       6       1   
    287        5       6      17   
    288        5       7       1   
    289        5       7      17   
    290        5       8       1   
    291        5       8      17   
    292        5       9       1   
    293        5       9      17   
    294        5      10       1   
    295        5      10      17   
    296        5      11       1   
    297        5      11      17   
    298        5      12       1   
    299        5      12      17   
    300        5      13       1   
    301        5      13      17   
    302        5      14       1   
    303        5      14      17   
    304        5      15       1   
    305        5      15       2   
    306        5      15       3   
    307        5      15       4   
    308        5      15       5   
    309        5      15       6   
    310        5      15       7   
    311        5      15       8   
    312        5      15       9   
    313        5      15      10   
    314        5      15      11   
    315        5      15      12   
    316        5      15      13   
    317        5      15      14   
    318        5      15      15   
    319        5      15      16   
    320        5      15      17   
 ----------------------------------



 LAK PACKAGE (LAK-1) DATA FOR PERIOD      1
 ---------------------------------------------------------------
   NUMBER   KEYWORD                  VALUE 1         VALUE 2    
 ---------------------------------------------------------------
     1      RAINFALL                 0.0116                     
     1      EVAPORATION              0.0103                     
 ---------------------------------------------------------------



 LAK PACKAGE (LAK-1) FLOW RATES   PERIOD      1   STEP        1
 -----------------------------------------------
   NUMBER   CELLID                    RATE      
 -----------------------------------------------
     1      (1,6,7)              -545.20999     
     2      (1,7,6)              -1522.2860     
     3      (2,7,7)              -977.99513     
     4      (1,6,8)              -361.33360     
     5      (2,7,8)              -202.70904     
     6      (1,6,9)               9.6623979     
     7      (2,7,9)               13.438668     
     8      (1,6,10)              640.92597     
     9      (2,7,10)              377.79834     
     10     (1,6,11)              1671.7094     
     11     (1,7,12)              2598.4496     
     12     (2,7,11)              2013.6445     
     13     (1,8,6)              -1849.8516     
     14     (2,8,7)              -901.59484     
     15     (1,8,12)              2056.6307     
     16     (2,8,11)              1054.8091     
     17     (1,9,6)              -1952.9347     
     18     (2,9,7)              -941.55075     
     19     (1,9,12)              1891.3787     
     20     (2,9,11)              943.96398     
     21     (1,10,6)             -1849.8516     
     22     (2,10,7)             -901.59484     
     23     (1,10,12)             2056.6307     
     24     (2,10,11)             1054.8091     
     25     (1,11,6)             -1522.2860     
     26     (1,12,7)             -545.20999     
     27     (2,11,7)             -977.99513     
     28     (1,12,8)             -361.33360     
     29     (2,11,8)             -202.70904     
     30     (1,12,9)              9.6623979     
     31     (2,11,9)              13.438668     
     32     (1,12,10)             640.92597     
     33     (2,11,10)             377.79834     
     34     (1,11,12)             2598.4496     
     35     (1,12,11)             1671.7094     
     36     (2,11,11)             2013.6445     
     37     (2,7,8)              -2.2482275     
     38     (2,8,7)              -9.9995064     
     39     (3,8,8)              -37.579791     
     40     (2,7,9)               0.14904704    
     41     (3,8,9)               0.80224812    
     42     (2,7,10)              4.1901271     
     43     (2,8,11)              11.698792     
     44     (3,8,10)              48.516996     
     45     (2,9,7)              -10.442654     
     46     (3,9,8)              -33.569760     
     47     (3,9,9)               7.78488265E-02
     48     (2,9,11)              10.469419     
     49     (3,9,10)              34.365290     
     50     (2,10,7)             -9.9995064     
     51     (2,11,8)             -2.2482275     
     52     (3,10,8)             -37.579791     
     53     (2,11,9)              0.14904704    
     54     (3,10,9)              0.80224807    
     55     (2,10,11)             11.698792     
     56     (2,11,10)             4.1901271     
     57     (3,10,10)             48.516996     
 -----------------------------------------------




 LAK-1 PACKAGE - SUMMARY OF FLOWS FOR EACH CONTROL VOLUME   PERIOD      1   STEP        1
 ---------------------------------------------------------------------------------------------------------------------------------------------------------
                                                                                                                                                PERCENT   
   NUMBER       GWF        RAINFALL   EVAPORATION     RUNOFF     EXT INFLOW   WITHDRAWAL  EXT OUTFLOW    STORAGE      CONSTANT     IN - OUT    DIFFERENCE 
 ---------------------------------------------------------------------------------------------------------------------------------------------------------
     1      -8125.0       72500.      -64375.       0.0000       0.0000       0.0000       0.0000       0.0000       0.0000       6.26565E-03  7.09908E-06
 ---------------------------------------------------------------------------------------------------------------------------------------------------------



 LAK PACKAGE (LAK-1) STAGES FOR EACH CONTROL VOLUME   PERIOD      1   STEP        1
 --------------------------------------------------------------
   NUMBER      STAGE     SURFACE AREA WETTED AREA     VOLUME   
 --------------------------------------------------------------
     1       187.09       6.25000E+06  7.11440E+06  5.23093E+08
 --------------------------------------------------------------


1
  HEAD IN LAYER   1 AT END OF TIME STEP   1 IN STRESS PERIOD    1
  ---------------------------------------------------------------------------

            1           2           3           4           5           6           7           8           9          10
           11          12          13          14          15          16          17
 ............................................................................................................................................................................................................
   1    160.0       158.8       157.3       155.8       154.2       152.7       151.5       150.8       150.0       149.2    
        148.5       147.3       145.8       144.2       142.7       141.2       140.0    
   2    160.0       162.0       163.2       163.4       163.1       162.4       161.7       161.1       160.4       159.7    
        158.9       157.6       155.5       152.8       149.4       144.7       140.0    
   3    160.0       164.7       169.1       171.6       172.8       173.1       172.8       172.4       171.8       171.1    
        170.3       168.7       165.8       161.8       156.1       147.9       140.0    
   4    160.0       166.4       173.0       177.0       179.3       180.3       180.3       180.0       179.6       178.9    
        178.0       176.3       172.8       167.7       160.4       149.9       140.0    
   5    160.0       167.5       175.5       180.6       183.6       185.0       185.1       184.9       184.6       184.0    
        183.1       181.3       177.4       171.6       163.3       151.2       140.0    
   6    160.0       168.2       177.0       182.7       186.1       187.5       187.5       187.3       187.1       186.7    
        186.0       184.3       180.2       174.0       165.0       152.0       140.0    
   7    160.0       168.4       177.6       183.5       186.9       188.1      1.0000E+30  1.0000E+30  1.0000E+30  1.0000E+30
       1.0000E+30   185.4       181.3       174.9       165.6       152.3       140.0    
   8    160.0       168.5       177.8       183.8       187.2       188.3      1.0000E+30  1.0000E+30  1.0000E+30  1.0000E+30
       1.0000E+30   185.7       181.7       175.3       165.9       152.4       140.0    
   9    160.0       168.6       177.8       183.9       187.3       188.4      1.0000E+30  1.0000E+30  1.0000E+30  1.0000E+30
       1.0000E+30   185.8       181.9       175.4       166.0       152.4       140.0    
  10    160.0       168.5       177.8       183.8       187.2       188.3      1.0000E+30  1.0000E+30  1.0000E+30  1.0000E+30
       1.0000E+30   185.7       181.7       175.3       165.9       152.4       140.0    
  11    160.0       168.4       177.6       183.5       186.9       188.1      1.0000E+30  1.0000E+30  1.0000E+30  1.0000E+30
       1.0000E+30   185.4       181.3       174.9       165.6       152.3       140.0    
  12    160.0       168.2       177.0       182.7       186.1       187.5       187.5       187.3       187.1       186.7    
        186.0       184.3       180.2       174.0       165.0       152.0       140.0    
  13    160.0       167.5       175.5       180.6       183.6       185.0       185.1       184.9       184.6       184.0    
        183.1       181.3       177.4       171.6       163.3       151.2       140.0    
  14    160.0       166.4       173.0       177.0       179.3       180.3       180.3       180.0       179.6       178.9    
        178.0       176.3       172.8       167.7       160.4       149.9       140.0    
  15    160.0       164.7       169.1       171.6       172.8       173.1       172.8       172.4       171.8       171.1    
        170.3       168.7       165.8       161.8       156.1       147.9       140.0    
  16    160.0       162.0       163.2       163.4       163.1       162.4       161.7       161.1       160.4       159.7    
        158.9       157.6       155.5       152.8       149.4       144.7       140.0    
  17    160.0       158.8       157.3       155.8       154.2       152.7       151.5       150.8       150.0       149.2    
        148.5       147.3       145.8       144.2       142.7       141.2       140.0    
1
  HEAD IN LAYER   2 AT END OF TIME STEP   1 IN STRESS PERIOD    1
  ---------------------------------------------------------------------------

            1           2           3           4           5           6           7           8           9          10
           11          12          13          14          15          16          17
 ............................................................................................................................................................................................................
   1    160.0       158.8       157.3       155.8       154.2       152.7       151.5       150.8       150.0       149.2    
        148.5       147.3       145.8       144.2       142.7       141.2       140.0    
   2    160.0       162.0       163.2       163.4       163.1       162.4       161.7       161.1       160.4       159.7    
        158.9       157.6       155.5       152.8       149.4       144.7       140.0    
   3    160.0       164.7       169.1       171.6       172.8       173.1       172.7       172.4       171.8       171.1    
        170.3       168.7       165.8       161.8       156.1       147.9       140.0    
   4    160.0       166.4       173.0       177.0       179.3       180.3       180.3       180.0       179.6       178.9    
        178.0       176.3       172.8       167.7       160.4       149.9       140.0    
   5    160.0       167.5       175.5       180.6       183.6       185.0       185.1       184.9       184.6       184.0    
        183.1       181.3       177.4       171.6       163.3       151.2       140.0    
   6    160.0       168.2       177.0       182.7       186.1       187.5       187.5       187.3       187.1       186.7    
        186.0       184.3       180.2       174.0       165.0       152.0       140.0    
   7    160.0       168.4       177.5       183.5       186.9       188.1       187.1       187.1       187.1       187.1    
        187.0       185.4       181.3       174.9       165.6       152.3       140.0    
   8    160.0       168.5       177.8       183.8       187.2       188.3       187.1      1.0000E+30  1.0000E+30  1.0000E+30
        187.1       185.7       181.7       175.3       165.9       152.4       140.0    
   9    160.0       168.6       177.8       183.9       187.3       188.4       187.1      1.0000E+30  1.0000E+30  1.0000E+30
        187.1       185.8       181.9       175.4       166.0       152.4       140.0    
  10    160.0       168.5       177.8       183.8       187.2       188.3       187.1      1.0000E+30  1.0000E+30  1.0000E+30
        187.1       185.7       181.7       175.3       165.9       152.4       140.0    
  11    160.0       168.4       177.5       183.5       186.9       188.1       187.1       187.1       187.1       187.1    
        187.0       185.4       181.3       174.9       165.6       152.3       140.0    
  12    160.0       168.2       177.0       182.7       186.1       187.5       187.5       187.3       187.1       186.7    
        186.0       184.3       180.2       174.0       165.0       152.0       140.0    
  13    160.0       167.5       175.5       180.6       183.6       185.0       185.1       184.9       184.6       184.0    
        183.1       181.3       177.4       171.6       163.3       151.2       140.0    
  14    160.0       166.4       173.0       177.0       179.3       180.3       180.3       180.0       179.6       178.9    
        178.0       176.3       172.8       167.7       160.4       149.9       140.0    
  15    160.0       164.7       169.1       171.6       172.8       173.1       172.7       172.4       171.8       171.1    
        170.3       168.7       165.8       161.8       156.1       147.9       140.0    
  16    160.0       162.0       163.2       163.4       163.1       162.4       161.7       161.1       160.4       159.7    
        158.9       157.6       155.5       152.8       149.4       144.7       140.0    
  17    160.0       158.8       157.3       155.8       154.2       152.7       151.5       150.8       150.0       149.2    
        148.5       147.3       145.8       144.2       142.7       141.2       140.0    
1
  HEAD IN LAYER   3 AT END OF TIME STEP   1 IN STRESS PERIOD    1
  ---------------------------------------------------------------------------

            1           2           3           4           5           6           7           8           9          10
           11          12          13          14          15          16          17
 ............................................................................................................................................................................................................
   1    160.0       158.8       157.3       155.8       154.2       152.7       151.5       150.8       150.0       149.2    
        148.5       147.3       145.8       144.2       142.7       141.2       140.0    
   2    160.0       162.0       163.2       163.4       163.1       162.4       161.7       161.1       160.4       159.7    
        158.9       157.6       155.5       152.8       149.4       144.7       140.0    
   3    160.0       164.7       169.1       171.6       172.8       173.1       172.7       172.4       171.8       171.1    
        170.3       168.7       165.8       161.8       156.1       147.9       140.0    
   4    160.0       166.4       173.0       177.0       179.3       180.3       180.3       180.0       179.6       178.9    
        178.0       176.3       172.8       167.7       160.4       149.9       140.0    
   5    160.0       167.5       175.5       180.6       183.6       185.0       185.1       184.9       184.6       184.0    
        183.1       181.3       177.4       171.6       163.3       151.2       140.0    
   6    160.0       168.2       177.0       182.7       186.1       187.5       187.5       187.3       187.1       186.7    
        186.0       184.3       180.2       174.0       165.0       152.0       140.0    
   7    160.0       168.4       177.5       183.5       186.9       188.1       187.1       187.1       187.1       187.1    
        187.0       185.4       181.3       174.9       165.6       152.3       140.0    
   8    160.0       168.5       177.8       183.8       187.2       188.3       187.1       187.1       187.1       187.1    
        187.1       185.7       181.7       175.3       165.9       152.4       140.0    
   9    160.0       168.6       177.8       183.9       187.3       188.4       187.1       187.1       187.1       187.1    
        187.1       185.8       181.8       175.4       166.0       152.4       140.0    
  10    160.0       168.5       177.8       183.8       187.2       188.3       187.1       187.1       187.1       187.1    
        187.1       185.7       181.7       175.3       165.9       152.4       140.0    
  11    160.0       168.4       177.5       183.5       186.9       188.1       187.1       187.1       187.1       187.1    
        187.0       185.4       181.3       174.9       165.6       152.3       140.0    
  12    160.0       168.2       177.0       182.7       186.1       187.5       187.5       187.3       187.1       186.7    
        186.0       184.3       180.2       174.0       165.0       152.0       140.0    
  13    160.0       167.5       175.5       180.6       183.6       185.0       185.1       184.9       184.6       184.0    
        183.1       181.3       177.4       171.6       163.3       151.2       140.0    
  14    160.0       166.4       173.0       177.0       179.3       180.3       180.3       180.0       179.6       178.9    
        178.0       176.3       172.8       167.7       160.4       149.9       140.0    
  15    160.0       164.7       169.1       171.6       172.8       173.1       172.7       172.4       171.8       171.1    
        170.3       168.7       165.8       161.8       156.1       147.9       140.0    
  16    160.0       162.0       163.2       163.4       163.1       162.4       161.7       161.1       160.4       159.7    
        158.9       157.6       155.5       152.8       149.4       144.7       140.0    
  17    160.0       158.8       157.3       155.8       154.2       152.7       151.5       150.8       150.0       149.2    
        148.5       147.3       145.8       144.2       142.7       141.2       140.0    
1
  HEAD IN LAYER   4 AT END OF TIME STEP   1 IN STRESS PERIOD    1
  ---------------------------------------------------------------------------

            1           2           3           4           5           6           7           8           9          10
           11          12          13          14          15          16          17
 ............................................................................................................................................................................................................
   1    160.0       158.8       157.3       155.8       154.2       152.7       151.5       150.8       150.0       149.2    
        148.5       147.3       145.8       144.2       142.7       141.2       140.0    
   2    160.0       162.0       163.2       163.4       163.1       162.4       161.7       161.1       160.4       159.7    
        158.9       157.6       155.4       152.8       149.4       144.7       140.0    
   3    160.0       164.7       169.1       171.6       172.8       173.1       172.7       172.4       171.8       171.1    
        170.3       168.7       165.8       161.8       156.1       147.9       140.0    
   4    160.0       166.4       173.0       177.0       179.3       180.3       180.3       180.0       179.6       178.9    
        178.0       176.3       172.8       167.7       160.4       149.9       140.0    
   5    160.0       167.5       175.5       180.6       183.6       185.0       185.1       184.9       184.6       184.0    
        183.1       181.3       177.4       171.6       163.2       151.2       140.0    
   6    160.0       168.2       177.0       182.7       186.1       187.5       187.5       187.3       187.1       186.7    
        186.0       184.3       180.2       174.0       165.0       152.0       140.0    
   7    160.0       168.4       177.5       183.5       186.9       188.1       187.1       187.1       187.1       187.1    
        187.0       185.4       181.3       174.9       165.6       152.3       140.0    
   8    160.0       168.5       177.8       183.8       187.2       188.3       187.1       187.1       187.1       187.1    
        187.1       185.7       181.7       175.3       165.9       152.4       140.0    
   9    160.0       168.6       177.8       183.9       187.3       188.4       187.1       187.1       187.1       187.1    
        187.1       185.8       181.8       175.4       166.0       152.4       140.0    
  10    160.0       168.5       177.8       183.8       187.2       188.3       187.1       187.1       187.1       187.1    
        187.1       185.7       181.7       175.3       165.9       152.4       140.0    
  11    160.0       168.4       177.5       183.5       186.9       188.1       187.1       187.1       187.1       187.1    
        187.0       185.4       181.3       174.9       165.6       152.3       140.0    
  12    160.0       168.2       177.0       182.7       186.1       187.5       187.5       187.3       187.1       186.7    
        186.0       184.3       180.2       174.0       165.0       152.0       140.0    
  13    160.0       167.5       175.5       180.6       183.6       185.0       185.1       184.9       184.6       184.0    
        183.1       181.3       177.4       171.6       163.2       151.2       140.0    
  14    160.0       166.4       173.0       177.0       179.3       180.3       180.3       180.0       179.6       178.9    
        178.0       176.3       172.8       167.7       160.4       149.9       140.0    
  15    160.0       164.7       169.1       171.6       172.8       173.1       172.7       172.4       171.8       171.1    
        170.3       168.7       165.8       161.8       156.1       147.9       140.0    
  16    160.0       162.0       163.2       163.4       163.1       162.4       161.7       161.1       160.4       159.7    
        158.9       157.6       155.4       152.8       149.4       144.7       140.0    
  17    160.0       158.8       157.3       155.8       154.2       152.7       151.5       150.8       150.0       149.2    
        148.5       147.3       145.8       144.2       142.7       141.2       140.0    
1
  HEAD IN LAYER   5 AT END OF TIME STEP   1 IN STRESS PERIOD    1
  ---------------------------------------------------------------------------

            1           2           3           4           5           6           7           8           9          10
           11          12          13          14          15          16          17
 ............................................................................................................................................................................................................
   1    160.0       158.8       157.3       155.8       154.2       152.7       151.5       150.8       150.0       149.2    
        148.5       147.3       145.8       144.2       142.7       141.2       140.0    
   2    160.0       162.0       163.2       163.4       163.1       162.4       161.7       161.1       160.4       159.7    
        158.9       157.6       155.4       152.8       149.4       144.7       140.0    
   3    160.0       164.7       169.1       171.6       172.8       173.1       172.7       172.4       171.8       171.1    
        170.3       168.7       165.8       161.8       156.1       147.9       140.0    
   4    160.0       166.4       173.0       177.0       179.3       180.3       180.3       180.0       179.6       178.9    
        178.0       176.3       172.8       167.7       160.4       149.9       140.0    
   5    160.0       167.5       175.5       180.6       183.6       185.0       185.1       184.9       184.6       184.0    
        183.1       181.3       177.4       171.6       163.2       151.2       140.0    
   6    160.0       168.2       177.0       182.7       186.1       187.5       187.5       187.3       187.1       186.7    
        186.0       184.3       180.2       174.0       165.0       152.0       140.0    
   7    160.0       168.4       177.5       183.5       186.9       188.1       187.1       187.1       187.1       187.1    
        187.0       185.4       181.3       174.9       165.6       152.3       140.0    
   8    160.0       168.5       177.8       183.8       187.2       188.3       187.1       187.1       187.1       187.1    
        187.0       185.7       181.7       175.3       165.9       152.4       140.0    
   9    160.0       168.6       177.8       183.9       187.3       188.4       187.1       187.1       187.1       187.1    
        187.1       185.8       181.8       175.4       166.0       152.4       140.0    
  10    160.0       168.5       177.8       183.8       187.2       188.3       187.1       187.1       187.1       187.1    
        187.0       185.7       181.7       175.3       165.9       152.4       140.0    
  11    160.0       168.4       177.5       183.5       186.9       188.1       187.1       187.1       187.1       187.1    
        187.0       185.4       181.3       174.9       165.6       152.3       140.0    
  12    160.0       168.2       177.0       182.7       186.1       187.5       187.5       187.3       187.1       186.7    
        186.0       184.3       180.2       174.0       165.0       152.0       140.0    
  13    160.0       167.5       175.5       180.6       183.6       185.0       185.1       184.9       184.6       184.0    
        183.1       181.3       177.4       171.6       163.2       151.2       140.0    
  14    160.0       166.4       173.0       177.0       179.3       180.3       180.3       180.0       179.6       178.9    
        178.0       176.3       172.8       167.7       160.4       149.9       140.0    
  15    160.0       164.7       169.1       171.6       172.8       173.1       172.7       172.4       171.8       171.1    
        170.3       168.7       165.8       161.8       156.1       147.9       140.0    
  16    160.0       162.0       163.2       163.4       163.1       162.4       161.7       161.1       160.4       159.7    
        158.9       157.6       155.4       152.8       149.4       144.7       140.0    
  17    160.0       158.8       157.3       155.8       154.2       152.7       151.5       150.8       150.0       149.2    
        148.5       147.3       145.8       144.2       142.7       141.2       140.0    

 HEAD WILL BE SAVED ON UNIT 1018 AT END OF TIME STEP    1, STRESS PERIOD    1


  LAK-1 BUDGET FOR ENTIRE MODEL AT END OF TIME STEP    1, STRESS PERIOD   1
  ------------------------------------------------------------------------------

     CUMULATIVE LAK-1      L**3       RATES FOR THIS TIME STEP      L**3/T
     ------------------                 ------------------------

           IN:                                      IN:
           ---                                      ---
                 GWF =       15760.1134                   GWF =       15760.1134
            RAINFALL =       72500.0000              RAINFALL =       72500.0000
         EVAPORATION =           0.0000           EVAPORATION =           0.0000
              RUNOFF =           0.0000                RUNOFF =           0.0000
          EXT-INFLOW =           0.0000            EXT-INFLOW =           0.0000
          WITHDRAWAL =           0.0000            WITHDRAWAL =           0.0000
         EXT-OUTFLOW =           0.0000           EXT-OUTFLOW =           0.0000
             STORAGE =           0.0000               STORAGE =           0.0000
            CONSTANT =           0.0000              CONSTANT =           0.0000

            TOTAL IN =       88260.1134              TOTAL IN =       88260.1134

          OUT:                                     OUT:
          ----                                     ----
                 GWF =       23885.1071                   GWF =       23885.1071
            RAINFALL =           0.0000              RAINFALL =           0.0000
         EVAPORATION =       64375.0000           EVAPORATION =       64375.0000
              RUNOFF =           0.0000                RUNOFF =           0.0000
          EXT-INFLOW =           0.0000            EXT-INFLOW =           0.0000
          WITHDRAWAL =           0.0000            WITHDRAWAL =           0.0000
         EXT-OUTFLOW =           0.0000           EXT-OUTFLOW =           0.0000
             STORAGE =           0.0000               STORAGE =           0.0000
            CONSTANT =           0.0000              CONSTANT =           0.0000

           TOTAL OUT =       88260.1071             TOTAL OUT =       88260.1071

            IN - OUT =       6.2657E-03              IN - OUT =       6.2657E-03

 PERCENT DISCREPANCY =           0.00     PERCENT DISCREPANCY =           0.00



  VOLUME BUDGET FOR ENTIRE MODEL AT END OF TIME STEP    1, STRESS PERIOD   1
  ---------------------------------------------------------------------------------------------------

     CUMULATIVE VOLUME      L**3       RATES FOR THIS TIME STEP      L**3/T          PACKAGE NAME    
     ------------------                 ------------------------                     ----------------

           IN:                                      IN:
           ---                                      ---
                RCHA =     1740000.0000                  RCHA =     1740000.0000     RCHA_0                           
                EVTA =           0.0000                  EVTA =           0.0000     EVTA_0                           
                 CHD =           0.0000                   CHD =           0.0000     CHD_0                            
                 LAK =       23885.1071                   LAK =       23885.1071     LAK-1                            

            TOTAL IN =     1763885.1071              TOTAL IN =     1763885.1071

          OUT:                                     OUT:
          ----                                     ----
                RCHA =           0.0000                  RCHA =           0.0000     RCHA_0                           
                EVTA =           0.0000                  EVTA =           0.0000     EVTA_0                           
                 CHD =     1748124.9936                   CHD =     1748124.9936     CHD_0                            
                 LAK =       15760.1134                   LAK =       15760.1134     LAK-1                            

           TOTAL OUT =     1763885.1070             TOTAL OUT =     1763885.1070

            IN - OUT =       9.6719E-05              IN - OUT =       9.6719E-05

 PERCENT DISCREPANCY =           0.00     PERCENT DISCREPANCY =           0.00




         TIME SUMMARY AT END OF TIME STEP    1 IN STRESS PERIOD    1
                          TIME STEP LENGTH =    1.00000    
                        STRESS PERIOD TIME =    1.00000    
                     TOTAL SIMULATION TIME =    1.00000    

end timestep

