                                   MODFLOW 6
                U.S. GEOLOGICAL SURVEY MODULAR HYDROLOGIC MODEL
                            VERSION 6.6.2 05/12/2025

   MODFLOW 6 compiled May 24 2025 11:41:46 with Intel(R) Fortran Intel(R) 64
   Compiler Classic for applications running on Intel(R) 64, Version 2021.7.0
                             Build 20220726_000000

This software has been approved for release by the U.S. Geological 
Survey (USGS). Although the software has been subjected to rigorous 
review, the USGS reserves the right to update the software as needed 
pursuant to further analysis and review. No warranty, expressed or 
implied, is made by the USGS or the U.S. Government as to the 
functionality of the software and related material nor shall the 
fact of release constitute any such warranty. Furthermore, the 
software is released on condition that neither the USGS nor the U.S. 
Government shall be held liable for any damages resulting from its 
authorized or unauthorized use. Also refer to the USGS Water 
Resources Software User Rights Notice for complete use, copyright, 
and distribution information.


As a work of the United States Government, this USGS product is 
in the public domain within the United States. You can copy, 
modify, distribute, and perform the work, even for commercial 
purposes, all without asking permission. Additionally, USGS 
waives copyright and related rights in the work worldwide 
through CC0 1.0 Universal Public Domain Dedication 
(https://creativecommons.org/publicdomain/zero/1.0/).

The following GNU Lesser General Public License (LGPL) libraries
are used in this USGS product:

    SPARSKIT version 2.0
      ilut, luson, and qsplit 
      (https://www-users.cse.umn.edu/~saad/software/SPARSKIT/)

    RCM - Reverse Cuthill McKee Ordering
      (https://people.math.sc.edu/Burkardt/f_src/rcm/rcm.html)

    BLAS - Basic Linear Algebra Subprograms Level 1
      (https://people.math.sc.edu/Burkardt/f_src/blas1_d/blas1_d.html)

    SPARSEKIT - Sparse Matrix Utility Package
      amux, dperm, dvperm, rperm, and cperm
      (https://people.sc.fsu.edu/~jburkardt/f77_src/sparsekit/sparsekit.html)

The following BSD-3 License libraries are used in this USGS product:

    Modern Fortran DAG Library
      Copyright (c) 2018, Jacob Williams
      All rights reserved.
      (https://github.com/jacobwilliams/daglib)

MODFLOW 6 compiler options: -Ilinux/obj_mf6 -O2 -no-heap-arrays -fpe0
-traceback -Qdiag-disable:7416 -Qdiag-disable:7025 -Qdiag-disable:5268 -fpp
-module linux/mod_mf6/ -c -o linux/obj_mf6/compilerversion.o

System command used to initiate simulation:
/home/danilopezmella/flopy_expert/bin/mf6

MODFLOW was compiled using uniform precision.

Real Variables
  KIND: 8
  TINY (smallest non-zero value):    2.225074-308
  HUGE (largest value):    1.797693+308
  PRECISION: 15
  SIZE IN BITS: 64

Integer Variables
  KIND: 4
  HUGE (largest value): 2147483647
  SIZE IN BITS: 32

Long Integer Variables
  KIND: 8
  HUGE (largest value): 9223372036854775807
  SIZE IN BITS: 64

Logical Variables
  KIND: 4
  SIZE IN BITS: 32
 

 OPENED mfsim.nam
 FILE TYPE:NAM6               UNIT 1001   STATUS:OLD                 
 FORMAT:FORMATTED              ACCESS:SEQUENTIAL          
 ACTION:READ                

 # File generated by Flopy version 3.9.3 on 08/07/2025 at 08:26:29.

 OPENED lakeconnect.tdis
 FILE TYPE:TDIS6              UNIT 1002   STATUS:OLD                 
 FORMAT:FORMATTED              ACCESS:SEQUENTIAL          
 ACTION:READ                

 # File generated by Flopy version 3.9.3 on 08/07/2025 at 08:26:29.

 OPENED lakeconnect.nam
 FILE TYPE:GWF6               UNIT 1003   STATUS:OLD                 
 FORMAT:FORMATTED              ACCESS:SEQUENTIAL          
 ACTION:READ                

 # File generated by Flopy version 3.9.3 on 08/07/2025 at 08:26:29.

 OPENED lakeconnect.dis
 FILE TYPE:DIS6               UNIT 1004   STATUS:OLD                 
 FORMAT:FORMATTED              ACCESS:SEQUENTIAL          
 ACTION:READ                

 # File generated by Flopy version 3.9.3 on 08/07/2025 at 08:26:29.

 OPENED lakeconnect.npf
 FILE TYPE:NPF6               UNIT 1005   STATUS:OLD                 
 FORMAT:FORMATTED              ACCESS:SEQUENTIAL          
 ACTION:READ                

 # File generated by Flopy version 3.9.3 on 08/07/2025 at 08:26:29.

 OPENED lakeconnect.ic
 FILE TYPE:IC6                UNIT 1006   STATUS:OLD                 
 FORMAT:FORMATTED              ACCESS:SEQUENTIAL          
 ACTION:READ                

 # File generated by Flopy version 3.9.3 on 08/07/2025 at 08:26:29.

 OPENED lakeconnect.oc
 FILE TYPE:OC6       UNIT 1007   STATUS:OLD                 
 FORMAT:FORMATTED              ACCESS:SEQUENTIAL          
 ACTION:READ                


 OPENED lakeconnect.rcha
 FILE TYPE:RCH6               UNIT 1009   STATUS:OLD                 
 FORMAT:FORMATTED              ACCESS:SEQUENTIAL          
 ACTION:READ                

 # File generated by Flopy version 3.9.3 on 08/07/2025 at 08:26:29.

 OPENED lakeconnect.evta
 FILE TYPE:EVT6               UNIT 1011   STATUS:OLD                 
 FORMAT:FORMATTED              ACCESS:SEQUENTIAL          
 ACTION:READ                

 # File generated by Flopy version 3.9.3 on 08/07/2025 at 08:26:29.

 OPENED lakeconnect.chd
 FILE TYPE:CHD6               UNIT 1012   STATUS:OLD                 
 FORMAT:FORMATTED              ACCESS:SEQUENTIAL          
 ACTION:READ                

 # File generated by Flopy version 3.9.3 on 08/07/2025 at 08:26:29.

 OPENED lakeconnect.lak
 FILE TYPE:LAK6      UNIT 1013   STATUS:OLD                 
 FORMAT:FORMATTED              ACCESS:SEQUENTIAL          
 ACTION:READ                


 READING SIMULATION OPTIONS
    MAXIMUM NUMBER OF ERRORS THAT WILL BE STORED IS 1000
 END OF SIMULATION OPTIONS

 READING SIMULATION TIMING

 TDIS -- TEMPORAL DISCRETIZATION PACKAGE,
 VERSION 1 : 11/13/2014 - INPUT READ FROM MEMPATH: __INPUT__/SIM/TDIS                                
 PROCESSING TDIS OPTIONS
    SIMULATION TIME UNIT IS UNDEFINED
 END OF TDIS OPTIONS
 PROCESSING TDIS DIMENSIONS
    1 STRESS PERIOD(S) IN SIMULATION
 END OF TDIS DIMENSIONS
 PROCESSING TDIS PERIODDATA


 STRESS PERIOD     LENGTH       TIME STEPS     MULTIPLIER FOR DELT
 ----------------------------------------------------------------------------
        1         1.000000          1                    1.000
 END OF TDIS PERIODDATA
 END OF SIMULATION TIMING

 READING SIMULATION MODELS
    GWF6 model 1 will be created
 END OF SIMULATION MODELS

 READING SIMULATION EXCHANGES
 END OF SIMULATION EXCHANGES

 READING SOLUTIONGROUP

 Creating solution: SLN_1           

 OPENED lakeconnect.ims
 FILE TYPE:IMS   UNIT 1015   STATUS:OLD                 
 FORMAT:FORMATTED              ACCESS:SEQUENTIAL          
 ACTION:READ                

 END OF SOLUTIONGROUP

PROCESSING MODEL CONNECTIONS

 IMS -- ITERATIVE MODEL SOLUTION PACKAGE, VERSION 6, 4/28/2017
         INPUT READ FROM UNIT 1015
 # File generated by Flopy version 3.9.3 on 08/07/2025 at 08:26:29.

 PROCESSING IMS OPTIONS
 END OF IMS OPTIONS

 PROCESSING IMS NONLINEAR
 END OF IMS NONLINEAR DATA
 ***UNDER-RELAXATION WILL NOT BE USED***
 

 PROCESSING LINEAR DATA
 END OF LINEAR DATA
 ***IMS LINEAR SOLVER WILL BE USED***

 IMSLINEAR -- UNSTRUCTURED LINEAR SOLUTION PACKAGE, VERSION 8, 04/28/2017
 An asymmetric matrix will be solved

 OUTER ITERATION CONVERGENCE CRITERION    (DVCLOSE) =    0.100000E-07
 MAXIMUM NUMBER OF OUTER ITERATIONS        (MXITER) = 1000
 SOLVER PRINTOUT INDEX                     (IPRIMS) = 1
 NONLINEAR ITERATION METHOD            (NONLINMETH) = 0
 LINEAR SOLUTION METHOD                   (LINMETH) = 1

       SOLUTION BY THE BICONJUGATE-GRADIENT STABILIZED METHOD
 ------------------------------------------------------------------
 MAXIMUM OF 1000 CALLS OF SOLUTION ROUTINE
 MAXIMUM OF 100 INTERNAL ITERATIONS PER CALL TO SOLUTION ROUTINE
 LINEAR ACCELERATION METHOD            = BCGS      
 MATRIX PRECONDITIONING TYPE           = INCOMPLETE LU       
 MATRIX SCALING APPROACH               = NO SCALING          
 MATRIX REORDERING APPROACH            = ORIGINAL ORDERING        
 NUMBER OF ORTHOGONALIZATIONS          = 0
 HEAD CHANGE CRITERION FOR CLOSURE     =    0.10000E-08
 RESIDUAL CHANGE CRITERION FOR CLOSURE =    0.10000E+00
 RESIDUAL CONVERGENCE OPTION           = 0
 RESIDUAL CONVERGENCE NORM             = INFINITY NORM   
 RELAXATION FACTOR                     =    0.00000E+00



 
    Solving:  Stress period:     1    Time step:     1
 
1
 STRESS PERIOD NO. 1, LENGTH =   1.000000    
 ------------------------------------------
 NUMBER OF TIME STEPS = 1
 MULTIPLIER FOR DELT =     1.000
 INITIAL TIME STEP SIZE =   1.000000    



 PSEUDO-TRANSIENT CONTINUATION WILL BE APPLIED TO MODEL 1 ("LAKECONNECT") DURING THIS TIME STEP

 SLN_1 OUTER ITERATION SUMMARY
 ----------------------------------------------------------------------------------------------------------
                                OUTER      INNER                    STEP   MAXIMUM CHANGE MODEL-(CELLID) OR
 OUTER ITERATION STEP       ITERATION  ITERATION  MAXIMUM CHANGE SUCCESS             MODEL-PACKAGE-(NUMBER)
 ----------------------------------------------------------------------------------------------------------
 Model                              1         36       64.488892                             1_GWF-(1,13,4)
 Model                              2         31      -12.017029                              1_GWF-(1,5,5)
 Model                              3         31       1.1045343                              1_GWF-(3,9,9)
 Model                              4         25       1.0783567                              1_GWF-(3,9,9)
 Model                              5         26       1.0663212                              1_GWF-(3,9,9)
 Model                              6         31       1.0541491                              1_GWF-(3,9,9)
 Model                              7         31       1.0419901                              1_GWF-(3,9,9)
 Model                              8         31       1.0298463                              1_GWF-(3,9,9)
 Model                              9         30       1.0177212                              1_GWF-(3,9,9)
 Model                             10         30       1.0056185                              1_GWF-(3,9,9)
 Model                             11         26      0.99354188                              1_GWF-(3,9,9)
 Model                             12         31      0.98149478                              1_GWF-(3,9,9)
 Model                             13         32      0.96948068                              1_GWF-(3,9,9)
 Model                             14         27      0.95750297                              1_GWF-(3,9,9)
 Model                             15         27      0.94556496                              1_GWF-(3,9,9)
 Model                             16         27      0.93366985                              1_GWF-(3,9,9)
 Model                             17         27      0.92182059                              1_GWF-(3,9,9)
 Model                             18         27      0.91002033                              1_GWF-(3,9,9)
 Model                             19         27      0.89827206                              1_GWF-(3,9,9)
 Model                             20         31      0.88657870                              1_GWF-(3,9,9)
 Model                             21         31      0.87494297                              1_GWF-(3,9,9)
 Model                             22         28      0.86336758                              1_GWF-(3,9,9)
 Model                             23         24      0.85185490                              1_GWF-(3,9,9)
 Model                             24         28      0.84040736                              1_GWF-(3,9,9)
 Model                             25         31      0.82902733                              1_GWF-(3,9,9)
 Model                             26         25      0.81771715                              1_GWF-(3,9,9)
 Model                             27         24      0.80647918                              1_GWF-(3,9,9)
 Model                             28         24      0.79531564                              1_GWF-(3,9,9)
 Model                             29         29      0.78422868                              1_GWF-(3,9,9)
 Model                             30         27      0.77322035                              1_GWF-(3,9,9)
 Model                             31         27      0.76229260                              1_GWF-(3,9,9)
 Model                             32         26      0.75144731                              1_GWF-(3,9,9)
 Model                             33         26      0.74068613                              1_GWF-(3,9,9)
 Model                             34         24      0.73001062                              1_GWF-(3,9,9)
 Model                             35         27      0.71942234                              1_GWF-(3,9,9)
 Model                             36         24      0.70892287                              1_GWF-(3,9,9)
 Model                             37         26      0.69851365                              1_GWF-(3,9,9)
 Model                             38         27      0.68819557                              1_GWF-(3,9,9)
 Model                             39         27      0.67796981                              1_GWF-(3,9,9)
 Model                             40         27      0.66783766                              1_GWF-(3,9,9)
 Model                             41         25      0.65780022                              1_GWF-(3,9,9)
 Model                             42         28      0.64785838                              1_GWF-(3,9,9)
 Model                             43         28      0.63801322                              1_GWF-(3,9,9)
 Model                             44         25      0.62826564                              1_GWF-(3,9,9)
 Model                             45         27      0.61861649                              1_GWF-(3,9,9)
 Model                             46         27      0.60906652                              1_GWF-(3,9,9)
 Model                             47         26      0.59961642                              1_GWF-(3,9,9)
 Model                             48         26      0.59026668                              1_GWF-(3,9,9)
 Model                             49         26      0.58101773                              1_GWF-(3,9,9)
 Model                             50         25      0.57187014                              1_GWF-(3,9,9)
 Model                             51         28      0.56282417                              1_GWF-(3,9,9)
 Model                             52         27      0.55388017                              1_GWF-(3,9,9)
 Model                             53         28      0.54503829                              1_GWF-(3,9,9)
 Model                             54         28      0.53629849                              1_GWF-(3,9,9)
 Model                             55         26      0.52766102                              1_GWF-(3,9,9)
 Model                             56         26      0.51912606                              1_GWF-(3,9,9)
 Model                             57         31      0.51069370                              1_GWF-(3,9,9)
 Model                             58         28      0.50236398                              1_GWF-(3,9,9)
 Model                             59         28      0.49413687                              1_GWF-(3,9,9)
 Model                             60         28      0.48601216                              1_GWF-(3,9,9)
 Model                             61         26      0.47798952                              1_GWF-(3,9,9)
 Model                             62         26      0.47006886                              1_GWF-(3,9,9)
 Model                             63         26      0.46225002                              1_GWF-(3,9,9)
 Model                             64         26      0.45453274                              1_GWF-(3,9,9)
 Model                             65         26      0.44691675                              1_GWF-(3,9,9)
 Model                             66         26      0.43940171                              1_GWF-(3,9,9)
 Model                             67         26      0.43198726                              1_GWF-(3,9,9)
 Model                             68         26      0.42467299                              1_GWF-(3,9,9)
 Model                             69         26      0.41745847                              1_GWF-(3,9,9)
 Model                             70         26      0.41034317                              1_GWF-(3,9,9)
 Model                             71         26      0.40332654                              1_GWF-(3,9,9)
 Model                             72         25      0.39640807                              1_GWF-(3,9,9)
 Model                             73         25      0.38958717                              1_GWF-(3,9,9)
 Model                             74         26      0.38286316                              1_GWF-(3,9,9)
 Model                             75         26      0.37623540                              1_GWF-(3,9,9)
 Model                             76         26      0.36970326                              1_GWF-(3,9,9)
 Model                             77         26      0.36326605                              1_GWF-(3,9,9)
 Model                             78         26      0.35692296                              1_GWF-(3,9,9)
 Model                             79         26      0.35067323                              1_GWF-(3,9,9)
 Model                             80         26      0.34451605                              1_GWF-(3,9,9)
 Model                             81         26      0.33845072                              1_GWF-(3,9,9)
 Model                             82         26      0.33247648                              1_GWF-(3,9,9)
 Model                             83         26      0.32659248                              1_GWF-(3,9,9)
 Model                             84         26      0.32079778                              1_GWF-(3,9,9)
 Model                             85         26      0.31509156                              1_GWF-(3,9,9)
 Model                             86         26      0.30947294                              1_GWF-(3,9,9)
 Model                             87         26      0.30394113                              1_GWF-(3,9,9)
 Model                             88         26      0.29849529                              1_GWF-(3,9,9)
 Model                             89         26      0.29313456                              1_GWF-(3,9,9)
 Model                             90         26      0.28785809                              1_GWF-(3,9,9)
 Model                             91         26      0.28266501                              1_GWF-(3,9,9)
 Model                             92         26      0.27755444                              1_GWF-(3,9,9)
 Model                             93         26      0.27252546                              1_GWF-(3,9,9)
 Model                             94         26      0.26757714                              1_GWF-(3,9,9)
 Model                             95         26      0.26270862                              1_GWF-(3,9,9)
 Model                             96         26      0.25791897                              1_GWF-(3,9,9)
 Model                             97         26      0.25320727                              1_GWF-(3,9,9)
 Model                             98         26      0.24857254                              1_GWF-(3,9,9)
 Model                             99         27      0.24401389                              1_GWF-(3,9,9)
 Model                            100         27      0.23953042                              1_GWF-(3,9,9)
 Model                            101         27      0.23512119                              1_GWF-(3,9,9)
 Model                            102         27      0.23078531                              1_GWF-(3,9,9)
 Model                            103         27      0.22652183                              1_GWF-(3,9,9)
 Model                            104         27      0.22232980                              1_GWF-(3,9,9)
 Model                            105         27      0.21820827                              1_GWF-(3,9,9)
 Model                            106         26      0.21415633                              1_GWF-(3,9,9)
 Model                            107         27      0.21017306                              1_GWF-(3,9,9)
 Model                            108         27      0.20625748                              1_GWF-(3,9,9)
 Model                            109         27      0.20240864                              1_GWF-(3,9,9)
 Model                            110         27      0.19862564                              1_GWF-(3,9,9)
 Model                            111         27      0.19490755                              1_GWF-(3,9,9)
 Model                            112         27      0.19125350                              1_GWF-(3,9,9)
 Model                            113         27      0.18766259                              1_GWF-(3,9,9)
 Model                            114         27      0.18413396                              1_GWF-(3,9,9)
 Model                            115         27      0.18066671                              1_GWF-(3,9,9)
 Model                            116         27      0.17725995                              1_GWF-(3,9,9)
 Model                            117         27      0.17391280                              1_GWF-(3,9,9)
 Model                            118         27      0.17062439                              1_GWF-(3,9,9)
 Model                            119         27      0.16739385                              1_GWF-(3,9,9)
 Model                            120         27      0.16422035                              1_GWF-(3,9,9)
 Model                            121         27      0.16110304                              1_GWF-(3,9,9)
 Model                            122         27      0.15804107                              1_GWF-(3,9,9)
 Model                            123         27      0.15503361                              1_GWF-(3,9,9)
 Model                            124         27      0.15207984                              1_GWF-(3,9,9)
 Model                            125         27      0.14917893                              1_GWF-(3,9,9)
 Model                            126         27      0.14633007                              1_GWF-(3,9,9)
 Model                            127         27      0.14353246                              1_GWF-(3,9,9)
 Model                            128         27      0.14078530                              1_GWF-(3,9,9)
 Model                            129         27      0.13808779                              1_GWF-(3,9,9)
 Model                            130         27      0.13543916                              1_GWF-(3,9,9)
 Model                            131         27      0.13283862                              1_GWF-(3,9,9)
 Model                            132         27      0.13028541                              1_GWF-(3,9,9)
 Model                            133         27      0.12777878                              1_GWF-(3,9,9)
 Model                            134         27      0.12531796                              1_GWF-(3,9,9)
 Model                            135         29      0.12290221                              1_GWF-(3,9,9)
 Model                            136         29      0.12053081                              1_GWF-(3,9,9)
 Model                            137         29      0.11820302                              1_GWF-(3,9,9)
 Model                            138         29      0.11591806                              1_GWF-(3,9,9)
 Model                            139         29      0.11367497                              1_GWF-(3,9,9)
 Model                            140         29      0.11147336                              1_GWF-(3,9,9)
 Model                            141         29      0.10931252                              1_GWF-(3,9,9)
 Model                            142         27      0.10719178                              1_GWF-(3,9,9)
 Model                            143         27      0.10511036                              1_GWF-(3,9,9)
 Model                            144         27      0.10306751                              1_GWF-(3,9,9)
 Model                            145         27      0.10106270                              1_GWF-(3,9,9)
 Model                            146         27  9.90952553E-02                              1_GWF-(3,9,9)
 Model                            147         27  9.71646106E-02                              1_GWF-(3,9,9)
 Model                            148         27  9.52701369E-02                              1_GWF-(3,9,9)
 Model                            149         27  9.34112135E-02                              1_GWF-(3,9,9)
 Model                            150         29  9.15872284E-02                              1_GWF-(3,9,9)
 Model                            151         29  8.97975739E-02                              1_GWF-(3,9,9)
 Model                            152         29  8.80416438E-02                              1_GWF-(3,9,9)
 Model                            153         29  8.63188550E-02                              1_GWF-(3,9,9)
 Model                            154         29  8.46286254E-02                              1_GWF-(3,9,9)
 Model                            155         29  8.29703839E-02                              1_GWF-(3,9,9)
 Model                            156         29  8.13435707E-02                              1_GWF-(3,9,9)
 Model                            157         29  7.97476309E-02                              1_GWF-(3,9,9)
 Model                            158         29  7.81820206E-02                              1_GWF-(3,9,9)
 Model                            159         29  7.66462015E-02                              1_GWF-(3,9,9)
 Model                            160         29  7.51396253E-02                              1_GWF-(3,9,9)
 Model                            161         29  7.36616718E-02                              1_GWF-(3,9,9)
 Model                            162         29  7.22119206E-02                              1_GWF-(3,9,9)
 Model                            163         29  7.07898841E-02                              1_GWF-(3,9,9)
 Model                            164         29  6.93950665E-02                              1_GWF-(3,9,9)
 Model                            165         29  6.80269766E-02                              1_GWF-(3,9,9)
 Model                            166         29  6.66851331E-02                              1_GWF-(3,9,9)
 Model                            167         29  6.53690613E-02                              1_GWF-(3,9,9)
 Model                            168         29  6.40782930E-02                              1_GWF-(3,9,9)
 Model                            169         29  6.28123691E-02                              1_GWF-(3,9,9)
 Model                            170         29  6.15708365E-02                              1_GWF-(3,9,9)
 Model                            171         30  6.03532498E-02                              1_GWF-(3,9,9)
 Model                            172         30  5.91591710E-02                              1_GWF-(3,9,9)
 Model                            173         30  5.79881690E-02                              1_GWF-(3,9,9)
 Model                            174         30  5.68398192E-02                              1_GWF-(3,9,9)
 Model                            175         30  5.57137043E-02                              1_GWF-(3,9,9)
 Model                            176         30  5.46094146E-02                              1_GWF-(3,9,9)
 Model                            177         30  5.35265453E-02                              1_GWF-(3,9,9)
 Model                            178         30  5.24647007E-02                              1_GWF-(3,9,9)
 Model                            179         30  5.14234895E-02                              1_GWF-(3,9,9)
 Model                            180         30  5.04025283E-02                              1_GWF-(3,9,9)
 Model                            181         30  4.94014394E-02                              1_GWF-(3,9,9)
 Model                            182         30  4.84198524E-02                              1_GWF-(3,9,9)
 Model                            183         30  4.74574021E-02                              1_GWF-(3,9,9)
 Model                            184         30  4.65137302E-02                              1_GWF-(3,9,9)
 Model                            185         30  4.55884846E-02                              1_GWF-(3,9,9)
 Model                            186         30  4.46813183E-02                              1_GWF-(3,9,9)
 Model                            187         30  4.37918916E-02                              1_GWF-(3,9,9)
 Model                            188         30  4.29198697E-02                              1_GWF-(3,9,9)
 Model                            189         30  4.20649242E-02                              1_GWF-(3,9,9)
 Model                            190         30  4.12267322E-02                              1_GWF-(3,9,9)
 Model                            191         30  4.04049759E-02                              1_GWF-(3,9,9)
 Model                            192         30  3.95993444E-02                              1_GWF-(3,9,9)
 Model                            193         30  3.88095308E-02                              1_GWF-(3,9,9)
 Model                            194         30  3.80352345E-02                              1_GWF-(3,9,9)
 Model                            195         30  3.72761600E-02                              1_GWF-(3,9,9)
 Model                            196         30  3.65320172E-02                              1_GWF-(3,9,9)
 Model                            197         30  3.58025210E-02                              1_GWF-(3,9,9)
 Model                            198         30  3.50873912E-02                              1_GWF-(3,9,9)
 Model                            199         30  3.43863533E-02                              1_GWF-(3,9,9)
 Model                            200         30  3.36991369E-02                              1_GWF-(3,9,9)
 Model                            201         30  3.30254690E-02                              1_GWF-(3,9,9)
 Model                            202         30  3.23650784E-02                              1_GWF-(3,9,9)
 Model                            203         30  3.17177285E-02                              1_GWF-(3,9,9)
 Model                            204         30  3.10831678E-02                              1_GWF-(3,9,9)
 Model                            205         30  3.04611504E-02                              1_GWF-(3,9,9)
 Model                            206         30  2.98514341E-02                              1_GWF-(3,9,9)
 Model                            207         30  2.92537817E-02                              1_GWF-(3,9,9)
 Model                            208         30  2.86679600E-02                              1_GWF-(3,9,9)
 Model                            209         30  2.80937401E-02                              1_GWF-(3,9,9)
 Model                            210         30  2.75308977E-02                              1_GWF-(3,9,9)
 Model                            211         30  2.69792119E-02                              1_GWF-(3,9,9)
 Model                            212         30  2.64384669E-02                              1_GWF-(3,9,9)
 Model                            213         30  2.59084497E-02                              1_GWF-(3,9,9)
 Model                            214         30  2.53889523E-02                              1_GWF-(3,9,9)
 Model                            215         30  2.48797698E-02                              1_GWF-(3,9,9)
 Model                            216         30  2.43807018E-02                              1_GWF-(3,9,9)
 Model                            217         30  2.38915508E-02                              1_GWF-(3,9,9)
 Model                            218         30  2.34121241E-02                              1_GWF-(3,9,9)
 Model                            219         30  2.29422315E-02                              1_GWF-(3,9,9)
 Model                            220         30  2.24816870E-02                              1_GWF-(3,9,9)
 Model                            221         30  2.20303079E-02                              1_GWF-(3,9,9)
 Model                            222         30  2.15879151E-02                              1_GWF-(3,9,9)
 Model                            223         30  2.11543326E-02                              1_GWF-(3,9,9)
 Model                            224         30  2.07293879E-02                              1_GWF-(3,9,9)
 Model                            225         30  2.03129118E-02                              1_GWF-(3,9,9)
 Model                            226         30  1.99047382E-02                              1_GWF-(3,9,9)
 Model                            227         26  1.95047042E-02                              1_GWF-(3,9,9)
 Model                            228         26  1.91126500E-02                              1_GWF-(3,9,9)
 Model                            229         26  1.87284187E-02                              1_GWF-(3,9,9)
 Model                            230         26  1.83518566E-02                              1_GWF-(3,9,9)
 Model                            231         26  1.79828129E-02                              1_GWF-(3,9,9)
 Model                            232         26  1.76211395E-02                              1_GWF-(3,9,9)
 Model                            233         26  1.72666911E-02                              1_GWF-(3,9,9)
 Model                            234         26  1.69193257E-02                              1_GWF-(3,9,9)
 Model                            235         26  1.65789033E-02                              1_GWF-(3,9,9)
 Model                            236         26  1.62452871E-02                              1_GWF-(3,9,9)
 Model                            237         26  1.59183427E-02                              1_GWF-(3,9,9)
 Model                            238         26  1.55979384E-02                              1_GWF-(3,9,9)
 Model                            239         26  1.52839449E-02                              1_GWF-(3,9,9)
 Model                            240         26  1.49762353E-02                              1_GWF-(3,9,9)
 Model                            241         26  1.46746856E-02                              1_GWF-(3,9,9)
 Model                            242         26  1.43791738E-02                              1_GWF-(3,9,9)
 Model                            243         26  1.40895803E-02                              1_GWF-(3,9,9)
 Model                            244         26  1.38057880E-02                              1_GWF-(3,9,9)
 Model                            245         26  1.35276818E-02                              1_GWF-(3,9,9)
 Model                            246         26  1.32551489E-02                              1_GWF-(3,9,9)
 Model                            247         26  1.29880791E-02                              1_GWF-(3,9,9)
 Model                            248         26  1.27263636E-02                              1_GWF-(3,9,9)
 Model                            249         26  1.24698964E-02                              1_GWF-(3,9,9)
 Model                            250         26  1.22185732E-02                              1_GWF-(3,9,9)
 Model                            251         26  1.19722917E-02                              1_GWF-(3,9,9)
 Model                            252         26  1.17309519E-02                              1_GWF-(3,9,9)
 Model                            253         26  1.14944553E-02                              1_GWF-(3,9,9)
 Model                            254         26  1.12627057E-02                              1_GWF-(3,9,9)
 Model                            255         26  1.10356087E-02                              1_GWF-(3,9,9)
 Model                            256         26  1.08130717E-02                              1_GWF-(3,9,9)
 Model                            257         26  1.05950037E-02                              1_GWF-(3,9,9)
 Model                            258         26  1.03813159E-02                              1_GWF-(3,9,9)
 Model                            259         26  1.01719210E-02                              1_GWF-(3,9,9)
 Model                            260         26  9.96673336E-03                              1_GWF-(3,9,9)
 Model                            261         26  9.76566914E-03                              1_GWF-(3,9,9)
 Model                            262         26  9.56864607E-03                              1_GWF-(3,9,9)
 Model                            263         26  9.37558357E-03                              1_GWF-(3,9,9)
 Model                            264         26  9.18640259E-03                              1_GWF-(3,9,9)
 Model                            265         26  9.00102563E-03                              1_GWF-(3,9,9)
 Model                            266         26  8.81937673E-03                              1_GWF-(3,9,9)
 Model                            267         26  8.64138149E-03                              1_GWF-(3,9,9)
 Model                            268         26  8.46696679E-03                              1_GWF-(3,9,9)
 Model                            269         26  8.29606118E-03                              1_GWF-(3,9,9)
 Model                            270         26  8.12859443E-03                              1_GWF-(3,9,9)
 Model                            271         26  7.96449789E-03                              1_GWF-(3,9,9)
 Model                            272         26  7.80370402E-03                              1_GWF-(3,9,9)
 Model                            273         26  7.64614684E-03                              1_GWF-(3,9,9)
 Model                            274         26  7.49176156E-03                              1_GWF-(3,9,9)
 Model                            275         26  7.34048467E-03                              1_GWF-(3,9,9)
 Model                            276         26  7.19225395E-03                              1_GWF-(3,9,9)
 Model                            277         26  7.04700842E-03                              1_GWF-(3,9,9)
 Model                            278         26  6.90468828E-03                              1_GWF-(3,9,9)
 Model                            279         26  6.76523488E-03                              1_GWF-(3,9,9)
 Model                            280         26  6.62859083E-03                              1_GWF-(3,9,9)
 Model                            281         26  6.49469979E-03                              1_GWF-(3,9,9)
 Model                            282         26  6.36350663E-03                              1_GWF-(3,9,9)
 Model                            283         26  6.23495716E-03                              1_GWF-(3,9,9)
 Model                            284         26  6.10899845E-03                              1_GWF-(3,9,9)
 Model                            285         26  5.98557846E-03                              1_GWF-(3,9,9)
 Model                            286         26  5.86464628E-03                              1_GWF-(3,9,9)
 Model                            287         26  5.74615203E-03                              1_GWF-(3,9,9)
 Model                            288         26  5.63004674E-03                              1_GWF-(3,9,9)
 Model                            289         26  5.51628241E-03                              1_GWF-(3,9,9)
 Model                            290         26  5.40481216E-03                              1_GWF-(3,9,9)
 Model                            291         26  5.29558980E-03                              1_GWF-(3,9,9)
 Model                            292         26  5.18857025E-03                              1_GWF-(3,9,9)
 Model                            293         26  5.08370926E-03                              1_GWF-(3,9,9)
 Model                            294         26  4.98096343E-03                              1_GWF-(3,9,9)
 Model                            295         26  4.88029029E-03                              1_GWF-(3,9,9)
 Model                            296         26  4.78164815E-03                              1_GWF-(3,9,9)
 Model                            297         24  4.68499622E-03                              1_GWF-(3,9,9)
 Model                            298         24  4.59029444E-03                              1_GWF-(3,9,9)
 Model                            299         24  4.49750368E-03                              1_GWF-(3,9,9)
 Model                            300         24  4.40658543E-03                              1_GWF-(3,9,9)
 Model                            301         24  4.31750210E-03                              1_GWF-(3,9,9)
 Model                            302         24  4.23021671E-03                              1_GWF-(3,9,9)
 Model                            303         24  4.14469315E-03                              1_GWF-(3,9,9)
 Model                            304         24  4.06089590E-03                              1_GWF-(3,9,9)
 Model                            305         24  3.97879030E-03                              1_GWF-(3,9,9)
 Model                            306         24  3.89834227E-03                              1_GWF-(3,9,9)
 Model                            307         24  3.81951844E-03                              1_GWF-(3,9,9)
 Model                            308         24  3.74228613E-03                              1_GWF-(3,9,9)
 Model                            309         24  3.66661327E-03                              1_GWF-(3,9,9)
 Model                            310         24  3.59246851E-03                              1_GWF-(3,9,9)
 Model                            311         24  3.51982102E-03                              1_GWF-(3,9,9)
 Model                            312         24  3.44864068E-03                              1_GWF-(3,9,9)
 Model                            313         24  3.37889794E-03                              1_GWF-(3,9,9)
 Model                            314         24  3.31056381E-03                              1_GWF-(3,9,9)
 Model                            315         24  3.24360994E-03                              1_GWF-(3,9,9)
 Model                            316         24  3.17800851E-03                              1_GWF-(3,9,9)
 Model                            317         24  3.11373226E-03                              1_GWF-(3,9,9)
 Model                            318         24  3.05075453E-03                              1_GWF-(3,9,9)
 Model                            319         24  2.98904907E-03                              1_GWF-(3,9,9)
 Model                            320         24  2.92859030E-03                              1_GWF-(3,9,9)
 Model                            321         24  2.86935307E-03                              1_GWF-(3,9,9)
 Model                            322         23  2.81131274E-03                              1_GWF-(3,9,9)
 Model                            323         23  2.75444518E-03                              1_GWF-(3,9,9)
 Model                            324         23  2.69872678E-03                              1_GWF-(3,9,9)
 Model                            325         23  2.64413431E-03                              1_GWF-(3,9,9)
 Model                            326         23  2.59064510E-03                              1_GWF-(3,9,9)
 Model                            327         23  2.53823689E-03                              1_GWF-(3,9,9)
 Model                            328         23  2.48688786E-03                              1_GWF-(3,9,9)
 Model                            329         23  2.43657668E-03                              1_GWF-(3,9,9)
 Model                            330         23  2.38728239E-03                              1_GWF-(3,9,9)
 Model                            331         23  2.33898444E-03                              1_GWF-(3,9,9)
 Model                            332         23  2.29166281E-03                              1_GWF-(3,9,9)
 Model                            333         23  2.24529772E-03                              1_GWF-(3,9,9)
 Model                            334         23  2.19986992E-03                              1_GWF-(3,9,9)
 Model                            335         23  2.15536045E-03                              1_GWF-(3,9,9)
 Model                            336         23  2.11175081E-03                              1_GWF-(3,9,9)
 Model                            337         23  2.06902284E-03                              1_GWF-(3,9,9)
 Model                            338         23  2.02715872E-03                              1_GWF-(3,9,9)
 Model                            339         23  1.98614102E-03                              1_GWF-(3,9,9)
 Model                            340         23  1.94595266E-03                              1_GWF-(3,9,9)
 Model                            341         23  1.90657688E-03                              1_GWF-(3,9,9)
 Model                            342         23  1.86799731E-03                              1_GWF-(3,9,9)
 Model                            343         23  1.83019782E-03                              1_GWF-(3,9,9)
 Model                            344         23  1.79316271E-03                              1_GWF-(3,9,9)
 Model                            345         23  1.75687652E-03                              1_GWF-(3,9,9)
 Model                            346         23  1.72132412E-03                              1_GWF-(3,9,9)
 Model                            347         23  1.68649070E-03                              1_GWF-(3,9,9)
 Model                            348         23  1.65236173E-03                              1_GWF-(3,9,9)
 Model                            349         23  1.61892300E-03                              1_GWF-(3,9,9)
 Model                            350         23  1.58616054E-03                              1_GWF-(3,9,9)
 Model                            351         23  1.55406071E-03                              1_GWF-(3,9,9)
 Model                            352         23  1.52261013E-03                              1_GWF-(3,9,9)
 Model                            353         23  1.49179566E-03                              1_GWF-(3,9,9)
 Model                            354         22  1.46160448E-03                              1_GWF-(3,9,9)
 Model                            355         22  1.43202396E-03                              1_GWF-(3,9,9)
 Model                            356         22  1.40304178E-03                              1_GWF-(3,9,9)
 Model                            357         22  1.37464586E-03                              1_GWF-(3,9,9)
 Model                            358         22  1.34682433E-03                              1_GWF-(3,9,9)
 Model                            359         22  1.31956558E-03                              1_GWF-(3,9,9)
 Model                            360         22  1.29285830E-03                              1_GWF-(3,9,9)
 Model                            361         22  1.26669126E-03                              1_GWF-(3,9,9)
 Model                            362         22  1.24105360E-03                              1_GWF-(3,9,9)
 Model                            363         22  1.21593459E-03                              1_GWF-(3,9,9)
 Model                            364         22  1.19132376E-03                              1_GWF-(3,9,9)
 Model                            365         22  1.16721084E-03                              1_GWF-(3,9,9)
 Model                            366         22  1.14358575E-03                              1_GWF-(3,9,9)
 Model                            367         22  1.12043867E-03                              1_GWF-(3,9,9)
 Model                            368         22  1.09775988E-03                              1_GWF-(3,9,9)
 Model                            369         22  1.07553995E-03                              1_GWF-(3,9,9)
 Model                            370         22  1.05376961E-03                              1_GWF-(3,9,9)
 Model                            371         22  1.03243973E-03                              1_GWF-(3,9,9)
 Model                            372         22  1.01154146E-03                              1_GWF-(3,9,9)
 Model                            373         22  9.91066018E-04                              1_GWF-(3,9,9)
 Model                            374         22  9.71004884E-04                              1_GWF-(3,9,9)
 Model                            375         22  9.51349688E-04                              1_GWF-(3,9,9)
 Model                            376         22  9.32092228E-04                              1_GWF-(3,9,9)
 Model                            377         22  9.13224410E-04                              1_GWF-(3,9,9)
 Model                            378         22  8.94738418E-04                              1_GWF-(3,9,9)
 Model                            379         22  8.76626503E-04                              1_GWF-(3,9,9)
 Model                            380         22  8.58881092E-04                              1_GWF-(3,9,9)
 Model                            381         22  8.41494781E-04                              1_GWF-(3,9,9)
 Model                            382         22  8.24460308E-04                              1_GWF-(3,9,9)
 Model                            383         22  8.07770567E-04                              1_GWF-(3,9,9)
 Model                            384         22  7.91418573E-04                              1_GWF-(3,9,9)
 Model                            385         21  7.75397510E-04                              1_GWF-(3,9,9)
 Model                            386         21  7.59700661E-04                              1_GWF-(3,9,9)
 Model                            387         21  7.44321498E-04                              1_GWF-(3,9,9)
 Model                            388         21  7.29253565E-04                              1_GWF-(3,9,9)
 Model                            389         21  7.14490577E-04                              1_GWF-(3,9,9)
 Model                            390         21  7.00026378E-04                              1_GWF-(3,9,9)
 Model                            391         21  6.85854921E-04                              1_GWF-(3,9,9)
 Model                            392         21  6.71970289E-04                              1_GWF-(3,9,9)
 Model                            393         21  6.58366657E-04                              1_GWF-(3,9,9)
 Model                            394         21  6.45038348E-04                              1_GWF-(3,9,9)
 Model                            395         21  6.31979796E-04                              1_GWF-(3,9,9)
 Model                            396         21  6.19185561E-04                              1_GWF-(3,9,9)
 Model                            397         21  6.06650266E-04                              1_GWF-(3,9,9)
 Model                            398         21  5.94368703E-04                              1_GWF-(3,9,9)
 Model                            399         21  5.82335712E-04                              1_GWF-(3,9,9)
 Model                            400         21  5.70546294E-04                              1_GWF-(3,9,9)
 Model                            401         21  5.58995484E-04                              1_GWF-(3,9,9)
 Model                            402         21  5.47678470E-04                              1_GWF-(3,9,9)
 Model                            403         21  5.36590541E-04                              1_GWF-(3,9,9)
 Model                            404         21  5.25727047E-04                              1_GWF-(3,9,9)
 Model                            405         21  5.15083415E-04                              1_GWF-(3,9,9)
 Model                            406         21  5.04655254E-04                              1_GWF-(3,9,9)
 Model                            407         21  4.94438152E-04                              1_GWF-(3,9,9)
 Model                            408         21  4.84427871E-04                              1_GWF-(3,9,9)
 Model                            409         21  4.74620234E-04                              1_GWF-(3,9,9)
 Model                            410         21  4.65011125E-04                              1_GWF-(3,9,9)
 Model                            411         21  4.55596514E-04                              1_GWF-(3,9,9)
 Model                            412         21  4.46372475E-04                              1_GWF-(3,9,9)
 Model                            413         21  4.37335152E-04                              1_GWF-(3,9,9)
 Model                            414         21  4.28480797E-04                              1_GWF-(3,9,9)
 Model                            415         21  4.19805653E-04                              1_GWF-(3,9,9)
 Model                            416         21  4.11306121E-04                              1_GWF-(3,9,9)
 Model                            417         21  4.02978670E-04                              1_GWF-(3,9,9)
 Model                            418         21  3.94819769E-04                              1_GWF-(3,9,9)
 Model                            419         21  3.86826044E-04                              1_GWF-(3,9,9)
 Model                            420         21  3.78994126E-04                              1_GWF-(3,9,9)
 Model                            421         21  3.71320785E-04                              1_GWF-(3,9,9)
 Model                            422         20  3.63802756E-04                              1_GWF-(3,9,9)
 Model                            423         20  3.56436929E-04                              1_GWF-(3,9,9)
 Model                            424         20  3.49220208E-04                              1_GWF-(3,9,9)
 Model                            425         20  3.42149607E-04                              1_GWF-(3,9,9)
 Model                            426         20  3.35222128E-04                              1_GWF-(3,9,9)
 Model                            427         20  3.28434890E-04                              1_GWF-(3,9,9)
 Model                            428         20  3.21785058E-04                              1_GWF-(3,9,9)
 Model                            429         20  3.15269851E-04                              1_GWF-(3,9,9)
 Model                            430         20  3.08886549E-04                              1_GWF-(3,9,9)
 Model                            431         20  3.02632468E-04                              1_GWF-(3,9,9)
 Model                            432         20  2.96504983E-04                              1_GWF-(3,9,9)
 Model                            433         20  2.90501572E-04                              1_GWF-(3,9,9)
 Model                            434         20  2.84619692E-04                              1_GWF-(3,9,9)
 Model                            435         20  2.78856895E-04                              1_GWF-(3,9,9)
 Model                            436         20  2.73210772E-04                              1_GWF-(3,9,9)
 Model                            437         20  2.67678945E-04                              1_GWF-(3,9,9)
 Model                            438         20  2.62259120E-04                              1_GWF-(3,9,9)
 Model                            439         20  2.56949012E-04                              1_GWF-(3,9,9)
 Model                            440         20  2.51746428E-04                              1_GWF-(3,9,9)
 Model                            441         20  2.46649157E-04                              1_GWF-(3,9,9)
 Model                            442         20  2.41655087E-04                              1_GWF-(3,9,9)
 Model                            443         20  2.36762130E-04                              1_GWF-(3,9,9)
 Model                            444         20  2.31968239E-04                              1_GWF-(3,9,9)
 Model                            445         20  2.27271397E-04                              1_GWF-(3,9,9)
 Model                            446         20  2.22669651E-04                              1_GWF-(3,9,9)
 Model                            447         20  2.18161072E-04                              1_GWF-(3,9,9)
 Model                            448         20  2.13743770E-04                              1_GWF-(3,9,9)
 Model                            449         20  2.09415908E-04                              1_GWF-(3,9,9)
 Model                            450         20  2.05175664E-04                              1_GWF-(3,9,9)
 Model                            451         20  2.01021285E-04                              1_GWF-(3,9,9)
 Model                            452         20  1.96950989E-04                              1_GWF-(3,9,9)
 Model                            453         19  1.92963127E-04                              1_GWF-(3,9,9)
 Model                            454         19  1.89055990E-04                              1_GWF-(3,9,9)
 Model                            455         19  1.85227971E-04                              1_GWF-(3,9,9)
 Model                            456         19  1.81477456E-04                              1_GWF-(3,9,9)
 Model                            457         19  1.77802869E-04                              1_GWF-(3,9,9)
 Model                            458         19  1.74202681E-04                              1_GWF-(3,9,9)
 Model                            459         19  1.70675393E-04                              1_GWF-(3,9,9)
 Model                            460         19  1.67219506E-04                              1_GWF-(3,9,9)
 Model                            461         19  1.63833614E-04                              1_GWF-(3,9,9)
 Model                            462         19  1.60516255E-04                              1_GWF-(3,9,9)
 Model                            463         19  1.57266070E-04                              1_GWF-(3,9,9)
 Model                            464         19  1.54081701E-04                              1_GWF-(3,9,9)
 Model                            465         19  1.50961789E-04                              1_GWF-(3,9,9)
 Model                            466         19  1.47905065E-04                              1_GWF-(3,9,9)
 Model                            467         19  1.44910216E-04                              1_GWF-(3,9,9)
 Model                            468         19  1.41976017E-04                              1_GWF-(3,9,9)
 Model                            469         19  1.39101228E-04                              1_GWF-(3,9,9)
 Model                            470         19  1.36284631E-04                              1_GWF-(3,9,9)
 Model                            471         19  1.33525078E-04                              1_GWF-(3,9,9)
 Model                            472         19  1.30821388E-04                              1_GWF-(3,9,9)
 Model                            473         19  1.28172447E-04                              1_GWF-(3,9,9)
 Model                            474         19  1.25577135E-04                              1_GWF-(3,9,9)
 Model                            475         19  1.23034375E-04                              1_GWF-(3,9,9)
 Model                            476         19  1.20543101E-04                              1_GWF-(3,9,9)
 Model                            477         19  1.18102270E-04                              1_GWF-(3,9,9)
 Model                            478         19  1.15710869E-04                              1_GWF-(3,9,9)
 Model                            479         19  1.13367882E-04                              1_GWF-(3,9,9)
 Model                            480         19  1.11072329E-04                              1_GWF-(3,9,9)
 Model                            481         19  1.08823250E-04                              1_GWF-(3,9,9)
 Model                            482         19  1.06619724E-04                              1_GWF-(3,9,9)
 Model                            483         19  1.04460808E-04                              1_GWF-(3,9,9)
 Model                            484         19  1.02345610E-04                              1_GWF-(3,9,9)
 Model                            485         19  1.00273229E-04                              1_GWF-(3,9,9)
 Model                            486         19  9.82428292E-05                              1_GWF-(3,9,9)
 Model                            487         19  9.62535302E-05                              1_GWF-(3,9,9)
 Model                            488         19  9.43045189E-05                              1_GWF-(3,9,9)
 Model                            489         19  9.23949525E-05                              1_GWF-(3,9,9)
 Model                            490         19  9.05240713E-05                              1_GWF-(3,9,9)
 Model                            491         19  8.86910505E-05                              1_GWF-(3,9,9)
 Model                            492         19  8.68951709E-05                              1_GWF-(3,9,9)
 Model                            493         19  8.51356390E-05                              1_GWF-(3,9,9)
 Model                            494         19  8.34117331E-05                              1_GWF-(3,9,9)
 Model                            495         19  8.17227297E-05                              1_GWF-(3,9,9)
 Model                            496         19  8.00679469E-05                              1_GWF-(3,9,9)
 Model                            497         19  7.84466453E-05                              1_GWF-(3,9,9)
 Model                            498         14  7.68581889E-05                              1_GWF-(3,9,9)
 Model                            499         14  7.53021720E-05                              1_GWF-(3,9,9)
 Model                            500         14  7.37773806E-05                              1_GWF-(3,9,9)
 Model                            501         14  7.22834563E-05                              1_GWF-(3,9,9)
 Model                            502         14  7.08197925E-05                              1_GWF-(3,9,9)
 Model                            503         14  6.93857463E-05                              1_GWF-(3,9,9)
 Model                            504         14  6.79807494E-05                              1_GWF-(3,9,9)
 Model                            505         14  6.66042102E-05                              1_GWF-(3,9,9)
 Model                            506         14  6.52555254E-05                              1_GWF-(3,9,9)
 Model                            507         14  6.39341621E-05                              1_GWF-(3,9,9)
 Model                            508         14  6.26395450E-05                              1_GWF-(3,9,9)
 Model                            509         14  6.13711506E-05                              1_GWF-(3,9,9)
 Model                            510         14  6.01284350E-05                              1_GWF-(3,9,9)
 Model                            511         14  5.89108829E-05                              1_GWF-(3,9,9)
 Model                            512         14  5.77179955E-05                              1_GWF-(3,9,9)
 Model                            513         14  5.65492459E-05                              1_GWF-(3,9,9)
 Model                            514         14  5.54041767E-05                              1_GWF-(3,9,9)
 Model                            515         14  5.42822734E-05                              1_GWF-(3,9,9)
 Model                            516         14  5.31831034E-05                              1_GWF-(3,9,9)
 Model                            517         14  5.21061960E-05                              1_GWF-(3,9,9)
 Model                            518         14  5.10510958E-05                              1_GWF-(3,9,9)
 Model                            519         14  5.00173405E-05                              1_GWF-(3,9,9)
 Model                            520         14  4.90045259E-05                              1_GWF-(3,9,9)
 Model                            521         14  4.80122242E-05                              1_GWF-(3,9,9)
 Model                            522         14  4.70400069E-05                              1_GWF-(3,9,9)
 Model                            523         14  4.60874921E-05                              1_GWF-(3,9,9)
 Model                            524         14  4.51542450E-05                              1_GWF-(3,9,9)
 Model                            525         14  4.42399093E-05                              1_GWF-(3,9,9)
 Model                            526         14  4.33440761E-05                              1_GWF-(3,9,9)
 Model                            527         14  4.24663903E-05                              1_GWF-(3,9,9)
 Model                            528         14  4.16064771E-05                              1_GWF-(3,9,9)
 Model                            529         14  4.07639679E-05                              1_GWF-(3,9,9)
 Model                            530         14  3.99385441E-05                              1_GWF-(3,9,9)
 Model                            531         14  3.91298064E-05                              1_GWF-(3,9,9)
 Model                            532         14  3.83374497E-05                              1_GWF-(3,9,9)
 Model                            533         14  3.75611438E-05                              1_GWF-(3,9,9)
 Model                            534         14  3.68005591E-05                              1_GWF-(3,9,9)
 Model                            535         14  3.60553791E-05                              1_GWF-(3,9,9)
 Model                            536         14  3.53252680E-05                              1_GWF-(3,9,9)
 Model                            537         14  3.46099532E-05                              1_GWF-(3,9,9)
 Model                            538         14  3.39091331E-05                              1_GWF-(3,9,9)
 Model                            539         14  3.32224863E-05                              1_GWF-(3,9,9)
 Model                            540         14  3.25497511E-05                              1_GWF-(3,9,9)
 Model                            541         14  3.18906521E-05                              1_GWF-(3,9,9)
 Model                            542         14  3.12448891E-05                              1_GWF-(3,9,9)
 Model                            543         14  3.06121931E-05                              1_GWF-(3,9,9)
 Model                            544         14  2.99923198E-05                              1_GWF-(3,9,9)
 Model                            545         14  2.93849870E-05                              1_GWF-(3,9,9)
 Model                            546         14  2.87899713E-05                              1_GWF-(3,9,9)
 Model                            547         14  2.82069651E-05                              1_GWF-(3,9,9)
 Model                            548         14  2.76358031E-05                              1_GWF-(3,9,9)
 Model                            549         14  2.70761884E-05                              1_GWF-(3,9,9)
 Model                            550         14  2.65279212E-05                              1_GWF-(3,9,9)
 Model                            551         14  2.59907417E-05                              1_GWF-(3,9,9)
 Model                            552         14  2.54644449E-05                              1_GWF-(3,9,9)
 Model                            553         14  2.49488091E-05                              1_GWF-(3,9,9)
 Model                            554         14  2.44436076E-05                              1_GWF-(3,9,9)
 Model                            555         14  2.39486401E-05                              1_GWF-(3,9,9)
 Model                            556         14  2.34636868E-05                              1_GWF-(3,9,9)
 Model                            557         14  2.29885576E-05                              1_GWF-(3,9,9)
 Model                            558         14  2.25230700E-05                              1_GWF-(3,9,9)
 Model                            559         14  2.20669715E-05                              1_GWF-(3,9,9)
 Model                            560         14  2.16201356E-05                              1_GWF-(3,9,9)
 Model                            561         14  2.11823474E-05                              1_GWF-(3,9,9)
 Model                            562         14  2.07534135E-05                              1_GWF-(3,9,9)
 Model                            563         14  2.03331633E-05                              1_GWF-(3,9,9)
 Model                            564         14  1.99214310E-05                              1_GWF-(3,9,9)
 Model                            565         14  1.95180383E-05                              1_GWF-(3,9,9)
 Model                            566         14  1.91227988E-05                              1_GWF-(3,9,9)
 Model                            567         14  1.87355793E-05                              1_GWF-(3,9,9)
 Model                            568         14  1.83561809E-05                              1_GWF-(3,9,9)
 Model                            569         14  1.79844748E-05                              1_GWF-(3,9,9)
 Model                            570         14  1.76203186E-05                              1_GWF-(3,9,9)
 Model                            571         14  1.72635009E-05                              1_GWF-(3,9,9)
 Model                            572         14  1.69139241E-05                              1_GWF-(3,9,9)
 Model                            573         14  1.65714332E-05                              1_GWF-(3,9,9)
 Model                            574         14  1.62358726E-05                              1_GWF-(3,9,9)
 Model                            575         14  1.59070932E-05                              1_GWF-(3,9,9)
 Model                            576         14  1.55849885E-05                              1_GWF-(3,9,9)
 Model                            577         14  1.52693997E-05                              1_GWF-(3,9,9)
 Model                            578         14  1.49602055E-05                              1_GWF-(3,9,9)
 Model                            579         14  1.46572563E-05                              1_GWF-(3,9,9)
 Model                            580         14  1.43604676E-05                              1_GWF-(3,9,9)
 Model                            581         14  1.40696729E-05                              1_GWF-(3,9,9)
 Model                            582         14  1.37847719E-05                              1_GWF-(3,9,9)
 Model                            583         14  1.35056230E-05                              1_GWF-(3,9,9)
 Model                            584         14  1.32321520E-05                              1_GWF-(3,9,9)
 Model                            585         14  1.29642090E-05                              1_GWF-(3,9,9)
 Model                            586         14  1.27017001E-05                              1_GWF-(3,9,9)
 Model                            587         14  1.24444830E-05                              1_GWF-(3,9,9)
 Model                            588         14  1.21924812E-05                              1_GWF-(3,9,9)
 Model                            589         13  1.19455935E-05                              1_GWF-(3,9,9)
 Model                            590         13  1.17037011E-05                              1_GWF-(3,9,9)
 Model                            591         13  1.14667012E-05                              1_GWF-(3,9,9)
 Model                            592         13  1.12345119E-05                              1_GWF-(3,9,9)
 Model                            593         13  1.10070084E-05                              1_GWF-(3,9,9)
 Model                            594         13  1.07841352E-05                              1_GWF-(3,9,9)
 Model                            595         13  1.05657550E-05                              1_GWF-(3,9,9)
 Model                            596         13  1.03518064E-05                              1_GWF-(3,9,9)
 Model                            597         13  1.01421945E-05                              1_GWF-(3,9,9)
 Model                            598         13  9.93681357E-06                              1_GWF-(3,9,9)
 Model                            599         13  9.73559207E-06                              1_GWF-(3,9,9)
 Model                            600         13  9.53845310E-06                              1_GWF-(3,9,9)
 Model                            601         13  9.34530118E-06                              1_GWF-(3,9,9)
 Model                            602         12  9.15606199E-06                              1_GWF-(3,9,9)
 Model                            603         12  8.97068085E-06                              1_GWF-(3,9,9)
 Model                            604         12  8.78901611E-06                              1_GWF-(3,9,9)
 Model                            605         12  8.61103149E-06                              1_GWF-(3,9,9)
 Model                            606         12  8.43666618E-06                              1_GWF-(3,9,9)
 Model                            607         12  8.26582900E-06                              1_GWF-(3,9,9)
 Model                            608         12  8.09844653E-06                              1_GWF-(3,9,9)
 Model                            609         12  7.93445847E-06                              1_GWF-(3,9,9)
 Model                            610         12  7.77378608E-06                              1_GWF-(3,9,9)
 Model                            611         12  7.61637955E-06                              1_GWF-(3,9,9)
 Model                            612         12  7.46214732E-06                              1_GWF-(3,9,9)
 Model                            613         12  7.31103802E-06                              1_GWF-(3,9,9)
 Model                            614         12  7.16298462E-06                              1_GWF-(3,9,9)
 Model                            615         12  7.01795378E-06                              1_GWF-(3,9,9)
 Model                            616         12  6.87583207E-06                              1_GWF-(3,9,9)
 Model                            617         12  6.73660750E-06                              1_GWF-(3,9,9)
 Model                            618         12  6.60019205E-06                              1_GWF-(3,9,9)
 Model                            619         12  6.46655388E-06                              1_GWF-(3,9,9)
 Model                            620         12  6.33560236E-06                              1_GWF-(3,9,9)
 Model                            621         12  6.20730233E-06                              1_GWF-(3,9,9)
 Model                            622         12  6.08160303E-06                              1_GWF-(3,9,9)
 Model                            623         12  5.95844702E-06                              1_GWF-(3,9,9)
 Model                            624         12  5.83780945E-06                              1_GWF-(3,9,9)
 Model                            625         12  5.71958938E-06                              1_GWF-(3,9,9)
 Model                            626         12  5.60376569E-06                              1_GWF-(3,9,9)
 Model                            627         12  5.49029545E-06                              1_GWF-(3,9,9)
 Model                            628         12  5.37911617E-06                              1_GWF-(3,9,9)
 Model                            629         12  5.27019048E-06                              1_GWF-(3,9,9)
 Model                            630         12  5.16348007E-06                              1_GWF-(3,9,9)
 Model                            631         12  5.05892220E-06                              1_GWF-(3,9,9)
 Model                            632         12  4.95647595E-06                              1_GWF-(3,9,9)
 Model                            633         12  4.85610269E-06                              1_GWF-(3,9,9)
 Model                            634         12  4.75777210E-06                              1_GWF-(3,9,9)
 Model                            635         12  4.66141643E-06                              1_GWF-(3,9,9)
 Model                            636         12  4.56703955E-06                              1_GWF-(3,9,9)
 Model                            637         12  4.47456395E-06                              1_GWF-(3,9,9)
 Model                            638         12  4.38394912E-06                              1_GWF-(3,9,9)
 Model                            639         12  4.29517857E-06                              1_GWF-(3,9,9)
 Model                            640         12  4.20820575E-06                              1_GWF-(3,9,9)
 Model                            641         12  4.12298382E-06                              1_GWF-(3,9,9)
 Model                            642         12  4.03949517E-06                              1_GWF-(3,9,9)
 Model                            643         12  3.95770849E-06                              1_GWF-(3,9,9)
 Model                            644         12  3.87756214E-06                              1_GWF-(3,9,9)
 Model                            645         12  3.79904813E-06                              1_GWF-(3,9,9)
 Model                            646         12  3.72210812E-06                              1_GWF-(3,9,9)
 Model                            647         12  3.64673664E-06                              1_GWF-(3,9,9)
 Model                            648         12  3.57288141E-06                              1_GWF-(3,9,9)
 Model                            649         12  3.50054594E-06                              1_GWF-(3,9,9)
 Model                            650         12  3.42964498E-06                              1_GWF-(3,9,9)
 Model                            651         12  3.36021654E-06                              1_GWF-(3,9,9)
 Model                            652         12  3.29216917E-06                              1_GWF-(3,9,9)
 Model                            653         12  3.22550238E-06                              1_GWF-(3,9,9)
 Model                            654         12  3.16018864E-06                              1_GWF-(3,9,9)
[...]
 Model                            761         10  3.54042868E-07                              1_GWF-(3,9,9)
 Model                            762         10  3.46876561E-07                              1_GWF-(3,9,9)
 Model                            763         10  3.39847617E-07                              1_GWF-(3,9,9)
 Model                            764         10  3.32966039E-07                              1_GWF-(3,9,9)
 Model                            765         10  3.26223613E-07                              1_GWF-(3,9,9)
 Model                            766         10  3.19619375E-07                              1_GWF-(3,9,9)
 Model                            767         10  3.13147268E-07                              1_GWF-(3,9,9)
 Model                            768         10  3.06823893E-07                              1_GWF-(3,9,9)
 Model                            769         10  3.00609372E-07                              1_GWF-(3,9,9)
 Model                            770         10  2.94525762E-07                              1_GWF-(3,9,9)
 Model                            771         10  2.88555157E-07                              1_GWF-(3,9,9)
 Model                            772         10  2.82714495E-07                              1_GWF-(3,9,9)
 Model                            773         10  2.76988260E-07                              1_GWF-(3,9,9)
 Model                            774         10  2.71379491E-07                              1_GWF-(3,9,9)
 Model                            775         10  2.65887337E-07                              1_GWF-(3,9,9)
 Model                            776         10  2.60497160E-07                              1_GWF-(3,9,9)
 Model                            777         10  2.55226098E-07                              1_GWF-(3,9,9)
 Model                            778         10  2.50053148E-07                              1_GWF-(3,9,9)
 Model                            779         10  2.44993629E-07                              1_GWF-(3,9,9)
 Model                            780         10  2.40029806E-07                              1_GWF-(3,9,9)
 Model                            781         10  2.35171342E-07                              1_GWF-(3,9,9)
 Model                            782         10  2.30407693E-07                              1_GWF-(3,9,9)
 Model                            783         10  2.25743236E-07                              1_GWF-(3,9,9)
 Model                            784         10  2.21170637E-07                              1_GWF-(3,9,9)
 Model                            785         10  2.16694758E-07                              1_GWF-(3,9,9)
 Model                            786         10  2.12304428E-07                              1_GWF-(3,9,9)
 Model                            787         10  2.08002490E-07                              1_GWF-(3,9,9)
 Model                            788         10  2.03795821E-07                              1_GWF-(3,9,9)
 Model                            789         10  1.99665465E-07                              1_GWF-(3,9,9)
 Model                            790         10  1.95624267E-07                              1_GWF-(3,9,9)
 Model                            791         10  1.91656795E-07                              1_GWF-(3,9,9)
 Model                            792         10  1.87781581E-07                              1_GWF-(3,9,9)
 Model                            793         10  1.83979893E-07                              1_GWF-(3,9,9)
 Model                            794         10  1.80245195E-07                              1_GWF-(3,9,9)
 Model                            795         10  1.76604374E-07                              1_GWF-(3,9,9)
 Model                            796         10  1.73023523E-07                              1_GWF-(3,9,9)
 Model                            797         10  1.69520973E-07                              1_GWF-(3,9,9)
 Model                            798         10  1.66089535E-07                              1_GWF-(3,9,9)
 Model                            799         10  1.62720653E-07                              1_GWF-(3,9,9)
 Model                            800         10  1.59430670E-07                              1_GWF-(3,9,9)
 Model                            801         10  1.56204493E-07                              1_GWF-(3,9,9)
 Model                            802         10  1.53041327E-07                              1_GWF-(3,9,9)
 Model                            803         10  1.49944697E-07                              1_GWF-(3,9,9)
 Model                            804         10  1.46910196E-07                              1_GWF-(3,9,9)
 Model                            805         10  1.43934187E-07                              1_GWF-(3,9,9)
 Model                            806         10  1.41014482E-07                              1_GWF-(3,9,9)
 Model                            807         10  1.38164978E-07                              1_GWF-(3,9,9)
 Model                            808         10  1.35366264E-07                              1_GWF-(3,9,9)
 Model                            809         10  1.32625132E-07                              1_GWF-(3,9,9)
 Model                            810         10  1.29938257E-07                              1_GWF-(3,9,9)
 Model                            811         10  1.27304872E-07                              1_GWF-(3,9,9)
 Model                            812         10  1.24731258E-07                              1_GWF-(3,9,9)
 Model                            813         10  1.22204142E-07                              1_GWF-(3,9,9)
 Model                            814         10  1.19726366E-07                              1_GWF-(3,9,9)
 Model                            815         10  1.17302989E-07                              1_GWF-(3,9,9)
 Model                            816         10  1.14928753E-07                              1_GWF-(3,9,9)
 Model                            817         10  1.12597576E-07                              1_GWF-(3,9,9)
 Model                            818         10  1.10323157E-07                              1_GWF-(3,9,9)
 Model                            819         10  1.08082361E-07                              1_GWF-(3,9,9)
 Model                            820         10  1.05904661E-07                              1_GWF-(5,9,9)
 Model                            821         10  1.03750239E-07                              1_GWF-(3,9,9)
 Model                            822         10  1.01655360E-07                              1_GWF-(3,9,9)
 Model                            823         10  9.95928531E-08                              1_GWF-(3,9,9)
 Model                            824         10  9.75761338E-08                              1_GWF-(3,9,9)
 Model                            825         10  9.56002566E-08                              1_GWF-(3,9,9)
 Model                            826         10  9.36626350E-08                              1_GWF-(3,9,9)
 Model                            827         10  9.17671059E-08                              1_GWF-(3,9,9)
 Model                            828         10  8.99090935E-08                              1_GWF-(3,9,9)
 Model                            829         10  8.80917526E-08                              1_GWF-(3,9,9)
 Model                            830         10  8.63050218E-08                              1_GWF-(3,9,9)
 Model                            831         10  8.45546424E-08                              1_GWF-(3,9,9)
 Model                            832         10  8.28460429E-08                              1_GWF-(3,9,9)
 Model                            833         10  8.11691905E-08                              1_GWF-(3,9,9)
 Model                            834         10  7.95202197E-08                              1_GWF-(3,9,9)
 Model                            835         10  7.79198785E-08                              1_GWF-(3,9,9)
 Model                            836          9  7.63376704E-08                              1_GWF-(3,9,9)
 Model                            837          9  7.47830882E-08                              1_GWF-(3,9,9)
 Model                            838          9  7.32740375E-08                              1_GWF-(4,9,9)
 Model                            839          9  7.17855357E-08                              1_GWF-(3,9,9)
 Model                            840          9  7.03336696E-08                              1_GWF-(3,9,9)
 Model                            841          9  6.89100830E-08                              1_GWF-(3,9,9)
 Model                            842          9  6.75184992E-08                              1_GWF-(3,9,9)
 Model                            843          9  6.61438264E-08                              1_GWF-(3,9,9)
 Model                            844          9  6.48090577E-08                              1_GWF-(4,9,9)
 Model                            845          9  6.34927346E-08                              1_GWF-(3,9,9)
 Model                            846          9  6.22109724E-08                              1_GWF-(4,9,9)
 Model                            847          9  6.09499580E-08                              1_GWF-(3,9,9)
 Model                            848          9  5.97172232E-08                              1_GWF-(3,9,9)
 Model                            849          9  5.85010582E-08                              1_GWF-(3,9,9)
 Model                            850          9  5.73252237E-08                              1_GWF-(3,9,9)
 Model                            851          9  5.61615821E-08                              1_GWF-(5,9,9)
 Model                            852          9  5.50201662E-08                              1_GWF-(3,9,9)
 Model                            853          9  5.39110658E-08                              1_GWF-(3,9,9)
 Model                            854          9  5.28193880E-08                              1_GWF-(3,9,9)
 Model                            855          9  5.17455874E-08                              1_GWF-(3,9,9)
 Model                            856          9  5.07031075E-08                              1_GWF-(5,9,9)
 Model                            857          9  4.96736732E-08                              1_GWF-(3,9,9)
 Model                            858          9  4.86669478E-08                              1_GWF-(3,9,9)
 Model                            859          9  4.76837840E-08                              1_GWF-(4,9,9)
 Model                            860          8  4.67192933E-08                              1_GWF-(3,9,9)
 Model                            861          8  4.57510794E-08                              1_GWF-(3,9,9)
 Model                            862          8  4.48305002E-08                              1_GWF-(5,9,9)
 Model                            863          8  4.39190444E-08                              1_GWF-(4,9,9)
 Model                            864          8  4.30291323E-08                              1_GWF-(3,9,9)
 Model                            865          8  4.21617301E-08                              1_GWF-(3,9,9)
 Model                            866          8  4.13081978E-08                              1_GWF-(3,9,9)
 Model                            867          8  4.04703826E-08                              1_GWF-(3,9,9)
 Model                            868          8  3.96546511E-08                              1_GWF-(4,9,9)
 Model                            869          8  3.88498620E-08                              1_GWF-(3,9,9)
 Model                            870          8  3.80663892E-08                              1_GWF-(3,9,9)
 Model                            871          8  3.72909028E-08                              1_GWF-(3,9,9)
 Model                            872          8  3.65368180E-08                              1_GWF-(4,9,9)
 Model                            873          8  3.57978536E-08                              1_GWF-(3,9,9)
 Model                            874          8  3.50722189E-08                              1_GWF-(5,9,9)
 Model                            875          8  3.43668205E-08                              1_GWF-(4,9,9)
 Model                            876          8  3.36632979E-08                              1_GWF-(3,9,9)
 Model                            877          8  3.29865770E-08                              1_GWF-(3,9,9)
 Model                            878          8  3.23159384E-08                              1_GWF-(3,9,9)
 Model                            879          8  3.16637738E-08                              1_GWF-(4,9,9)
 Model                            880          8  3.10209316E-08                              1_GWF-(3,9,9)
 Model                            881          8  3.03980698E-08                              1_GWF-(3,9,9)
 Model                            882          8  2.97793008E-08                              1_GWF-(3,9,9)
 Model                            883          8  2.91771585E-08                              1_GWF-(5,9,9)
 Model                            884          8  2.85871806E-08                              1_GWF-(3,9,9)
 Model                            885          8  2.80080883E-08                              1_GWF-(3,9,9)
 Model                            886          8  2.74424110E-08                              1_GWF-(4,9,9)
 Model                            887          8  2.68843792E-08                              1_GWF-(3,9,9)
 Model                            888          8  2.63395634E-08                              1_GWF-(3,9,9)
 Model                            889          8  2.58119996E-08                              1_GWF-(5,9,9)
 Model                            890          8  2.52857149E-08                              1_GWF-(3,9,9)
 Model                            891          8  2.47728451E-08                              1_GWF-(3,9,9)
 Model                            892          8  2.42727367E-08                              1_GWF-(4,9,9)
 Model                            893          8  2.37818654E-08                              1_GWF-(4,9,9)
 Model                            894          8  2.33022490E-08                              1_GWF-(3,9,9)
 Model                            895          8  2.28274359E-08                              1_GWF-(3,9,9)
 Model                            896          8  2.23656116E-08                              1_GWF-(3,9,9)
 Model                            897          8  2.19140190E-08                              1_GWF-(5,9,9)
 Model                            898          8  2.14658655E-08                              1_GWF-(3,8,9)
 Model                            899          8  2.10384599E-08                              1_GWF-(5,9,9)
 Model                            900          6  2.06137827E-08                              1_GWF-(4,9,9)
 Model                            901          8  2.01385149E-08                              1_GWF-(3,9,9)
 Model                            902          6  1.97869383E-08                              1_GWF-(3,9,9)
 Model                            903          8  1.93340668E-08                              1_GWF-(4,9,9)
 Model                            904          6  1.89978664E-08                              1_GWF-(3,9,9)
 Model                            905          8  1.85580120E-08                              1_GWF-(4,9,9)
 Model                            906          6  1.82344593E-08                              1_GWF-(3,9,9)
 Model                            907          6  1.78165465E-08                             1_GWF-(3,9,10)
 Model                            908          6  1.74649699E-08                              1_GWF-(4,9,9)
 Model                            909          6  1.71111196E-08                              1_GWF-(3,9,9)
 Model                            910          6  1.67673591E-08                              1_GWF-(3,9,9)
 Model                            911          6  1.64253606E-08                              1_GWF-(4,9,9)
 Model                            912          6  1.60922582E-08                              1_GWF-(3,9,9)
 Model                            913          6  1.57698423E-08                              1_GWF-(5,9,9)
 Model                            914          6  1.54530824E-08                              1_GWF-(4,9,9)
 Model                            915          6  1.51341339E-08                             1_GWF-(3,9,10)
 Model                            916          6  1.48367008E-08                              1_GWF-(4,9,9)
 Model                            917          6  1.45311958E-08                              1_GWF-(5,9,9)
 Model                            918          6  1.42407544E-08                              1_GWF-(3,9,9)
 Model                            919          6  1.39501424E-08                              1_GWF-(3,9,9)
 Model                            920          6  1.36702170E-08                              1_GWF-(3,9,8)
 Model                            921          6  1.33969991E-08                              1_GWF-(5,9,9)
 Model                            922          6  1.31224738E-08                              1_GWF-(3,9,9)
 Model                            923          6  1.28587203E-08                              1_GWF-(5,9,9)
 Model                            924          6  1.26011059E-08                             1_GWF-(3,10,9)
 Model                            925          6  1.23467601E-08                              1_GWF-(5,9,9)
 Model                            926          6  1.20947163E-08                              1_GWF-(3,9,9)
 Model                            927          6  1.18533308E-08                              1_GWF-(4,9,9)
 Model                            928          6  1.16106662E-08                             1_GWF-(4,10,9)
 Model                            929          6  1.13778071E-08                              1_GWF-(3,9,9)
 Model                            930          6  1.11465681E-08                              1_GWF-(3,9,9)
 Model                            931          6  1.09245946E-08                             1_GWF-(4,10,9)
 Model                            932          6  1.06978462E-08                              1_GWF-(3,9,9)
 Model                            933          6  1.04847686E-08                              1_GWF-(5,9,9)
 Model                            934          6  1.02768354E-08                              1_GWF-(3,9,9)
 Model                            935          6  1.00653494E-08                             1_GWF-(3,10,9)
 Model                            936          6  9.86165105E-09       *                      1_GWF-(3,9,9)
 Package                          936            -9.86239002E-09       *              1_GWF-LAK-1-(1)-stage
 ----------------------------------------------------------------------------------------------------------


 936 CALLS TO NUMERICAL SOLUTION IN TIME STEP 1 STRESS PERIOD 1
 17193 TOTAL ITERATIONS

 MEMORY MANAGER TOTAL STORAGE BY DATA TYPE, IN MEGABYTES
 -------------------------------
                    ALLOCATED   
 DATA TYPE           MEMORY     
 -------------------------------
 Character        9.88800000E-03
 Logical          4.80000000E-05
 Integer          0.38682000    
 Real             0.77623200    
 -------------------------------
 Total            1.1729880     
 Virtual          0.0000000     
 -------------------------------


 
 Run end date and time (yyyy/mm/dd hh:mm:ss): 2025/08/07  8:26:29
 Elapsed run time:  0.793 Seconds
 Normal termination of simulation.
