                                  MODFLOW-NWT-SWR1 
      U.S. GEOLOGICAL SURVEY MODULAR FINITE-DIFFERENCE GROUNDWATER-FLOW MODEL
                            VERSION 1.3.0 07/01/2022
                    BASED ON MODFLOW-2005 VERSION 1.12.00 02/03/2017

 LIST FILE: uzf_demo.list
                         UNIT    2

 OPENING uzf_demo.dis
 FILE TYPE:DIS   UNIT   11   STATUS:OLD    
 FORMAT:FORMATTED              ACCESS:SEQUENTIAL          

 OPENING uzf_demo.bas
 FILE TYPE:BAS6   UNIT   13   STATUS:OLD    
 FORMAT:FORMATTED              ACCESS:SEQUENTIAL          

 OPENING uzf_demo.upw
 FILE TYPE:UPW   UNIT   31   STATUS:OLD    
 FORMAT:FORMATTED              ACCESS:SEQUENTIAL          

 OPENING uzf_demo.uzf
 FILE TYPE:UZF   UNIT   19   STATUS:OLD    
 FORMAT:FORMATTED              ACCESS:SEQUENTIAL          

 OPENING uzf_demo.oc
 FILE TYPE:OC   UNIT   14   STATUS:OLD    
 FORMAT:FORMATTED              ACCESS:SEQUENTIAL          

 OPENING uzf_demo.nwt
 FILE TYPE:NWT   UNIT   32   STATUS:OLD    
 FORMAT:FORMATTED              ACCESS:SEQUENTIAL          

 OPENING uzf_demo.cbc
 FILE TYPE:DATA(BINARY)   UNIT   53   STATUS:REPLACE
 FORMAT:UNFORMATTED            ACCESS:STREAM              

 OPENING uzf_demo.hds
 FILE TYPE:DATA(BINARY)   UNIT   51   STATUS:REPLACE
 FORMAT:UNFORMATTED            ACCESS:STREAM              

 BAS -- BASIC PACKAGE, VERSION 1.3.0, 7/01/2022 INPUT READ FROM UNIT   13
 
 MODFLOW was compiled using mixed precision
 Precision of REAL variables:           6
 Precision of DOUBLE PRECISION variables:          15

 DISCRETIZATION INPUT DATA READ FROM UNIT   11
 # DIS package for MODFLOW-NWT generated by Flopy 3.9.3
    1 LAYERS         5 ROWS         5 COLUMNS
    1 STRESS PERIOD(S) IN SIMULATION
 MODEL TIME UNIT IS DAYS
 MODEL LENGTH UNIT IS METERS
  Confining bed flag for each layer:
   0

                     DELR =   100.000    

                     DELC =   100.000    

 TOP ELEVATION OF LAYER 1 =   110.000    

   MODEL LAYER BOTTOM EL. =   0.00000     FOR LAYER   1


 STRESS PERIOD     LENGTH       TIME STEPS     MULTIPLIER FOR DELT    SS FLAG
 ----------------------------------------------------------------------------
        1         1.000000          1                    1.000         SS

 STEADY-STATE SIMULATION



 
 # BAS6 package for MODFLOW-NWT generated by Flopy 3.9.3                         
 THE FREE FORMAT OPTION HAS BEEN SELECTED



                     BOUNDARY ARRAY FOR LAYER   1
 READING ON UNIT   13 WITH FORMAT: (5I10)              

 AQUIFER HEAD WILL BE SET TO  -999.99     AT ALL NO-FLOW NODES (IBOUND=0).



                       INITIAL HEAD FOR LAYER   1
 READING ON UNIT   13 WITH FORMAT: (5E15.6)            
 # OC package for MODFLOW-NWT generated by Flopy 3.9.3

 OUTPUT CONTROL IS SPECIFIED ONLY AT TIME STEPS FOR WHICH OUTPUT IS DESIRED
 COMPACT CELL-BY-CELL BUDGET FILES WILL BE WRITTEN
 AUXILIARY DATA WILL BE SAVED IN CELL-BY-CELL BUDGET FILES
 HEAD PRINT FORMAT CODE IS   0    DRAWDOWN PRINT FORMAT CODE IS   0
 HEADS WILL BE SAVED ON UNIT   51    DRAWDOWNS WILL BE SAVED ON UNIT    0
 # NWT package for MODFLOW-NWT generated by Flopy 3.9.3

 NWT1 -- Newton Solver, VERSION 1.3.0, 7/01/2022
         INPUT READ FROM UNIT 32

 COMPLEX OPTION:
 DEFAULT SOLVER INPUT VALUES REFLECT STRONGLY NONLINEAR MODEL
 ***GMRES linear solver will be used***
 
   CONVERGENCE CRITERION OF   0.100000E+00 FOR HEAD SOLUTION
   AND A TOLERANCE OF   0.100000E+04 FOR FLOW SOLUTION AND 
   A MAXIMUM OF   200 OUTER ITERATIONS. 


   D-B-D REDUCTION FACTOR OF    0.850000E+00 AND 
   A D-B-D INCREASE FACTOR OF    0.100000E-04 AND 
   A D-B-D RELAXATION OF    0.000000E+00 AND 
   A MOMENTUM FACTOR OF    0.100000E+00 .


   BACKTRACKING IS ACTIVE 
   THE MAXIMUM NUMBER OF BACKTRACKS IS    50 AND 
   THE BACKTRACKING TOLERANCE IS    0.110000E+01 AND
   THE BACKTRACKING REDUCTION FACTOR IS    0.700000E+00

 GMRES -- LINEAR SOLUTION BY GMRES PACKAGE 
     adapted for HYDROTHERM by Kipp and others (2008)
     using software originally developed by Saad (1990) 32
     using algorithms described in Saad (2003)

 UPW1 -- UPSTREAM WEIGHTING FLOW PACKAGE, VERSION 1.3.0, 7/01/2022
         INPUT READ FROM UNIT 31

 # UPW package for MODFLOW-NWT generated by Flopy 3.9.3
 CELL-BY-CELL FLOWS WILL BE SAVED ON UNIT   53
 No named parameters

   LAYER FLAGS:
 LAYER       LAYTYP          LAYAVG    CHANI           LAYVKA           LAYWET
 ---------------------------------------------------------------------------
    1             1             0     1.000E+00             0             0

   INTERPRETATION OF LAYER FLAGS:
                        INTERBLOCK     HORIZONTAL    DATA IN
         LAYER TYPE   TRANSMISSIVITY   ANISOTROPY   ARRAY VKA   WETTABILITY
 LAYER   (LAYTYP)        (LAYAVG)      (CHANI)     (LAYVKA)       (LAYWET)
 ---------------------------------------------------------------------------
    1   CONVERTIBLE      HARMONIC     1.000E+00    VERTICAL K  NON-WETTABLE

    HYD. COND. ALONG ROWS =   10.0000     FOR LAYER   1

      VERTICAL HYD. COND. =   1.00000     FOR LAYER   1

 UZF1 -- UNSATURATED FLOW PACKAGE, VERSION 1.5, 09/10/2019
         INPUT READ FROM UNIT 19
 # UZF package for MODFLOW-NWT generated by Flopy 3.9.3
 No named parameters



            AREAL EXTENT OF UZ FLOW
 READING ON UNIT   19 WITH FORMAT: (5I10)              
 OPTION 1 -- RECHARGE IN UZF TO TOP LAYER ONLY 



               SATURATED VERTICAL K
 READING ON UNIT   19 WITH FORMAT: (5E15.6)            

     BROOKS-COREY EPSILON =   3.50000    

  SATURATED WATER CONTENT =  0.350000    
1
                            STRESS PERIOD NO.    1, LENGTH =   1.000000    
                            -----------------------------------------------

                              NUMBER OF TIME STEPS =     1

                               MULTIPLIER FOR DELT =     1.000

                            INITIAL TIME STEP SIZE =   1.000000    



            AREAL INFILTRATION RATE
 READING ON UNIT   19 WITH FORMAT: (5E15.6)            

                  ET RATE =  1.000000E-04

      ET EXTINCTION DEPTH =   5.00000    

 EXTINCTION WATER CONTENT =  0.100000    
 
 SOLVING FOR HEAD 

    ------------------------------------------------
       NWT REQUIRED            2 OUTER ITERATIONS 
       AND A TOTAL OF         13 INNER ITERATIONS.
    ------------------------------------------------

 OUTPUT CONTROL FOR STRESS PERIOD    1   TIME STEP    1
    SAVE HEAD FOR ALL LAYERS
    SAVE BUDGET
 UBDSV2 SAVING "   CONSTANT HEAD" ON UNIT  53 AT TIME STEP  1, STRESS PERIOD   1
 UBDSV1 SAVING "FLOW RIGHT FACE " ON UNIT  53 AT TIME STEP  1, STRESS PERIOD   1
 UBDSV1 SAVING "FLOW FRONT FACE " ON UNIT  53 AT TIME STEP  1, STRESS PERIOD   1
 UBUDSV SAVING "           GW ET" ON UNIT 53 AT TIME STEP  1, STRESS PERIOD    1
 UBUDSV SAVING "    UZF RECHARGE" ON UNIT 53 AT TIME STEP  1, STRESS PERIOD    1
 UBUDSV SAVING " SURFACE LEAKAGE" ON UNIT 53 AT TIME STEP  1, STRESS PERIOD    1
 UBUDSV SAVING "       HORT+DUNN" ON UNIT 53 AT TIME STEP  1, STRESS PERIOD    1
 UBUDSV SAVING "  STORAGE CHANGE" ON UNIT 53 AT TIME STEP  1, STRESS PERIOD    1


UNSATURATED ZONE PACKAGE VOLUMETRIC BUDGET FOR  TIME STEP     1 STRESS PERIOD    1
  ------------------------------------------------------------------------------



     CUMULATIVE VOLUMES      L**3       RATES FOR THIS TIME STEP      L**3/T
     ------------------                 ------------------------

           IN:                                      IN:
           ---                                      ---
        INFILTRATION =         230.0000          INFILTRATION =         230.0000

          OUT:                                     OUT:
          ----                                     ----
              UZF ET =       0.0000E+00                UZF ET =       0.0000E+00
        UZF RECHARGE =         230.0000          UZF RECHARGE =         230.0000

            IN - OUT =       0.0000E+00              IN - OUT =       0.0000E+00

          STORAGE:                                 STORAGE:
          --------                                 --------
      STORAGE CHANGE =       0.0000E+00        STORAGE CHANGE =       0.0000E+00

 PERCENT DISCREPANCY IS DIFFERENCE BETWEEN IN-OUT MINUS CHANGE IN STORAGE
 DIVIDED BY THE AVERAGE OF IN AND OUT TIMES 100

 PERCENT DISCREPANCY =           0.00     PERCENT DISCREPANCY =           0.00







 HEAD WILL BE SAVED ON UNIT   51 AT END OF TIME STEP    1, STRESS PERIOD    1
1
  VOLUMETRIC BUDGET FOR ENTIRE MODEL AT END OF TIME STEP    1, STRESS PERIOD   1
  ------------------------------------------------------------------------------

     CUMULATIVE VOLUMES      L**3       RATES FOR THIS TIME STEP      L**3/T
     ------------------                 ------------------------

           IN:                                      IN:
           ---                                      ---
             STORAGE     =           0.0000               STORAGE     =           0.0000
       CONSTANT HEAD     =         770.0675         CONSTANT HEAD     =         770.0675
        UZF RECHARGE     =         230.0000          UZF RECHARGE     =         230.0000
               GW ET     =           0.0000                 GW ET     =           0.0000
     SURFACE LEAKAGE     =           0.0000       SURFACE LEAKAGE     =           0.0000

                TOTAL IN =        1000.0675                  TOTAL IN =        1000.0675

          OUT:                                     OUT:
          ----                                     ----
             STORAGE     =           0.0000               STORAGE     =           0.0000
       CONSTANT HEAD     =        1001.6179         CONSTANT HEAD     =        1001.6179
        UZF RECHARGE     =           0.0000          UZF RECHARGE     =           0.0000
               GW ET     =           0.0000                 GW ET     =           0.0000
     SURFACE LEAKAGE     =           0.0000       SURFACE LEAKAGE     =           0.0000

               TOTAL OUT =        1001.6179                 TOTAL OUT =        1001.6179

                IN - OUT =          -1.5504                  IN - OUT =          -1.5504

     PERCENT DISCREPANCY =          -0.15         PERCENT DISCREPANCY =          -0.15






         TIME SUMMARY AT END OF TIME STEP    1 IN STRESS PERIOD    1
                    SECONDS     MINUTES      HOURS       DAYS        YEARS
                    -----------------------------------------------------------
   TIME STEP LENGTH  86400.      1440.0      24.000      1.0000     2.73785E-03
 STRESS PERIOD TIME  86400.      1440.0      24.000      1.0000     2.73785E-03
         TOTAL TIME  86400.      1440.0      24.000      1.0000     2.73785E-03
1

 Run end date and time (yyyy/mm/dd hh:mm:ss): 2025/08/08 18:30:59
 Elapsed run time:  0.004 Seconds

