                                   MODFLOW 6
                U.S. GEOLOGICAL SURVEY MODULAR HYDROLOGIC MODEL
                          GROUNDWATER FLOW MODEL (GWF)
                            VERSION 6.6.2 05/12/2025

   MODFLOW 6 compiled May 24 2025 11:41:46 with Intel(R) Fortran Intel(R) 64
   Compiler Classic for applications running on Intel(R) 64, Version 2021.7.0
                             Build 20220726_000000

This software has been approved for release by the U.S. Geological 
Survey (USGS). Although the software has been subjected to rigorous 
review, the USGS reserves the right to update the software as needed 
pursuant to further analysis and review. No warranty, expressed or 
implied, is made by the USGS or the U.S. Government as to the 
functionality of the software and related material nor shall the 
fact of release constitute any such warranty. Furthermore, the 
software is released on condition that neither the USGS nor the U.S. 
Government shall be held liable for any damages resulting from its 
authorized or unauthorized use. Also refer to the USGS Water 
Resources Software User Rights Notice for complete use, copyright, 
and distribution information.


As a work of the United States Government, this USGS product is 
in the public domain within the United States. You can copy, 
modify, distribute, and perform the work, even for commercial 
purposes, all without asking permission. Additionally, USGS 
waives copyright and related rights in the work worldwide 
through CC0 1.0 Universal Public Domain Dedication 
(https://creativecommons.org/publicdomain/zero/1.0/).

The following GNU Lesser General Public License (LGPL) libraries
are used in this USGS product:

    SPARSKIT version 2.0
      ilut, luson, and qsplit 
      (https://www-users.cse.umn.edu/~saad/software/SPARSKIT/)

    RCM - Reverse Cuthill McKee Ordering
      (https://people.math.sc.edu/Burkardt/f_src/rcm/rcm.html)

    BLAS - Basic Linear Algebra Subprograms Level 1
      (https://people.math.sc.edu/Burkardt/f_src/blas1_d/blas1_d.html)

    SPARSEKIT - Sparse Matrix Utility Package
      amux, dperm, dvperm, rperm, and cperm
      (https://people.sc.fsu.edu/~jburkardt/f77_src/sparsekit/sparsekit.html)

The following BSD-3 License libraries are used in this USGS product:

    Modern Fortran DAG Library
      Copyright (c) 2018, Jacob Williams
      All rights reserved.
      (https://github.com/jacobwilliams/daglib)

MODFLOW 6 compiler options: -Ilinux/obj_mf6 -O2 -no-heap-arrays -fpe0
-traceback -Qdiag-disable:7416 -Qdiag-disable:7025 -Qdiag-disable:5268 -fpp
-module linux/mod_mf6/ -c -o linux/obj_mf6/compilerversion.o

System command used to initiate simulation:
/home/danilopezmella/flopy_expert/bin/mf6

MODFLOW was compiled using uniform precision.

Real Variables
  KIND: 8
  TINY (smallest non-zero value):    2.225074-308
  HUGE (largest value):    1.797693+308
  PRECISION: 15
  SIZE IN BITS: 64

Integer Variables
  KIND: 4
  HUGE (largest value): 2147483647
  SIZE IN BITS: 32

Long Integer Variables
  KIND: 8
  HUGE (largest value): 9223372036854775807
  SIZE IN BITS: 64

Logical Variables
  KIND: 4
  SIZE IN BITS: 32
 
 NAMEFILE OPTIONS:
    STRESS PACKAGE INPUT WILL BE PRINTED FOR ALL MODEL STRESS PACKAGES
    PACKAGE FLOWS WILL BE PRINTED FOR ALL MODEL PACKAGES
    FLOWS WILL BE SAVED TO BUDGET FILE SPECIFIED IN OUTPUT CONTROL
 END NAMEFILE OPTIONS:

 DIS -- STRUCTURED GRID DISCRETIZATION PACKAGE, VERSION 2 : 3/27/2014 - INPUT READ FROM MEMPATH: __INPUT__/FLOW_MODEL/DIS                          


 NPF -- NODE PROPERTY FLOW PACKAGE, VERSION 1, 3/30/2015 INPUT READ FROM MEMPATH: __INPUT__/FLOW_MODEL/NPF                          


 IC -- Initial Conditions Package, Version 8, 3/28/2015 input read from mempath: __INPUT__/FLOW_MODEL/IC                           


 Setting Discretization Options
 End Setting Discretization Options

 Setting Discretization Dimensions
    NLAY = 2
    NROW = 20
    NCOL = 25
 End Setting Discretization Dimensions

 Setting Discretization Griddata
    DELR set from input file
    DELC set from input file
    TOP set from input file
    BOTM set from input file
 End Setting Discretization Griddata

 Setting NPF Options
    Specific discharge will be calculated at cell centers and written to DATA-SPDIS in budget file when requested.
 End Setting NPF Options

 Setting NPF Griddata
    ICELLTYPE set from input file
    K set from input file
    K33 not provided.  Setting K33 = K.
    K22 not provided.  Setting K22 = K.
 End Setting NPF Griddata


 RCH   -- RCH PACKAGE, VERSION 8, 2/22/2014 INPUT READ FROM MEMPATH: __INPUT__/FLOW_MODEL/RCHA_0                       

 PROCESSING RCH BASE OPTIONS
 END OF RCH BASE OPTIONS

 PROCESSING RCHA OPTIONS
    RECHARGE INPUT WILL BE READ AS ARRAY(S).
 END OF RCHA OPTIONS

 CHD   -- CHD PACKAGE, VERSION 8, 2/22/2014 INPUT READ FROM MEMPATH: __INPUT__/FLOW_MODEL/CHD_0                        

 PROCESSING CHD BASE OPTIONS
 END OF CHD BASE OPTIONS

 PROCESSING CHD BASE DIMENSIONS
    MAXBOUND =      40
 END OF CHD BASE DIMENSIONS
    STRT set from input file

 STO -- STORAGE PACKAGE, VERSION 1, 5/19/2014 INPUT READ FROM MEMPATH: __INPUT__/FLOW_MODEL/STO                          


 PROCESSING STORAGE OPTIONS
 END OF STORAGE OPTIONS
    BINARY GRID INFORMATION WILL BE WRITTEN TO:
      UNIT NUMBER: 1014
      FILE NAME: flow_model.dis.grb

 OPENED flow_model.dis.grb
 FILE TYPE:DATA(BINARY)   UNIT 1014   STATUS:REPLACE             
 FORMAT:UNFORMATTED            ACCESS:STREAM              
 ACTION:READWRITE           

      THE LAST TIME STEP WILL BE PRINTED
      THE LAST TIME STEP WILL BE PRINTED
 # File generated by Flopy version 3.9.3 on 08/07/2025 at 09:01:46.

 PROCESSING OC OPTIONS

    BUDGET INFORMATION WILL BE WRITTEN TO:
      UNIT NUMBER: 1015
      FILE NAME: flow_model.cbc

 OPENED flow_model.cbc
 FILE TYPE:DATA(BINARY)   UNIT 1015   STATUS:REPLACE             
 FORMAT:UNFORMATTED            ACCESS:STREAM              
 ACTION:READWRITE           

    HEAD INFORMATION WILL BE WRITTEN TO:
      UNIT NUMBER: 1016
      FILE NAME: flow_model.hds

 OPENED flow_model.hds
 FILE TYPE:DATA(BINARY)   UNIT 1016   STATUS:REPLACE             
 FORMAT:UNFORMATTED            ACCESS:STREAM              
 ACTION:READWRITE           

 END OF OC OPTIONS

start timestep kper="1" kstp="1" mode="normal"


 BEGIN READING OUTPUT CONTROL FOR STRESS PERIOD 1
      ALL TIME STEPS WILL BE SAVED
      ALL TIME STEPS WILL BE SAVED
      ALL TIME STEPS WILL BE PRINTED
      ALL TIME STEPS WILL BE PRINTED

 END READING OUTPUT CONTROL FOR STRESS PERIOD 1


 PROCESSING STORAGE PERIOD DATA
 END PROCESSING STORAGE PERIOD DATA


 STRESS PERIOD 1 IS STEADY-STATE

 ----------------------------------
  RCH NO.    LAYER    ROW     COL  
 ----------------------------------
     1         1       1       1   
     2         1       1       2   
     3         1       1       3   
     4         1       1       4   
     5         1       1       5   
     6         1       1       6   
     7         1       1       7   
     8         1       1       8   
     9         1       1       9   
     10        1       1      10   
     11        1       1      11   
     12        1       1      12   
     13        1       1      13   
     14        1       1      14   
     15        1       1      15   
     16        1       1      16   
     17        1       1      17   
     18        1       1      18   
     19        1       1      19   
     20        1       1      20   
     21        1       1      21   
     22        1       1      22   
     23        1       1      23   
     24        1       1      24   
     25        1       1      25   
     26        1       2       1   
     27        1       2       2   
     28        1       2       3   
     29        1       2       4   
     30        1       2       5   
     31        1       2       6   
     32        1       2       7   
     33        1       2       8   
     34        1       2       9   
     35        1       2      10   
     36        1       2      11   
     37        1       2      12   
     38        1       2      13   
     39        1       2      14   
     40        1       2      15   
     41        1       2      16   
     42        1       2      17   
     43        1       2      18   
     44        1       2      19   
     45        1       2      20   
     46        1       2      21   
     47        1       2      22   
     48        1       2      23   
     49        1       2      24   
     50        1       2      25   
     51        1       3       1   
     52        1       3       2   
     53        1       3       3   
     54        1       3       4   
     55        1       3       5   
     56        1       3       6   
     57        1       3       7   
     58        1       3       8   
     59        1       3       9   
     60        1       3      10   
     61        1       3      11   
     62        1       3      12   
     63        1       3      13   
     64        1       3      14   
     65        1       3      15   
     66        1       3      16   
     67        1       3      17   
     68        1       3      18   
     69        1       3      19   
     70        1       3      20   
     71        1       3      21   
     72        1       3      22   
     73        1       3      23   
     74        1       3      24   
     75        1       3      25   
     76        1       4       1   
     77        1       4       2   
     78        1       4       3   
     79        1       4       4   
     80        1       4       5   
     81        1       4       6   
     82        1       4       7   
     83        1       4       8   
     84        1       4       9   
     85        1       4      10   
     86        1       4      11   
     87        1       4      12   
     88        1       4      13   
     89        1       4      14   
     90        1       4      15   
     91        1       4      16   
     92        1       4      17   
     93        1       4      18   
     94        1       4      19   
     95        1       4      20   
     96        1       4      21   
     97        1       4      22   
     98        1       4      23   
     99        1       4      24   
    100        1       4      25   
    101        1       5       1   
    102        1       5       2   
    103        1       5       3   
    104        1       5       4   
    105        1       5       5   
    106        1       5       6   
    107        1       5       7   
    108        1       5       8   
    109        1       5       9   
    110        1       5      10   
    111        1       5      11   
    112        1       5      12   
    113        1       5      13   
    114        1       5      14   
    115        1       5      15   
    116        1       5      16   
    117        1       5      17   
    118        1       5      18   
    119        1       5      19   
    120        1       5      20   
    121        1       5      21   
    122        1       5      22   
    123        1       5      23   
    124        1       5      24   
    125        1       5      25   
    126        1       6       1   
    127        1       6       2   
    128        1       6       3   
    129        1       6       4   
    130        1       6       5   
    131        1       6       6   
    132        1       6       7   
    133        1       6       8   
    134        1       6       9   
    135        1       6      10   
    136        1       6      11   
    137        1       6      12   
    138        1       6      13   
    139        1       6      14   
    140        1       6      15   
    141        1       6      16   
    142        1       6      17   
    143        1       6      18   
    144        1       6      19   
    145        1       6      20   
    146        1       6      21   
    147        1       6      22   
    148        1       6      23   
    149        1       6      24   
    150        1       6      25   
    151        1       7       1   
    152        1       7       2   
    153        1       7       3   
    154        1       7       4   
    155        1       7       5   
    156        1       7       6   
    157        1       7       7   
    158        1       7       8   
    159        1       7       9   
    160        1       7      10   
    161        1       7      11   
    162        1       7      12   
    163        1       7      13   
    164        1       7      14   
    165        1       7      15   
    166        1       7      16   
    167        1       7      17   
    168        1       7      18   
    169        1       7      19   
    170        1       7      20   
    171        1       7      21   
    172        1       7      22   
    173        1       7      23   
    174        1       7      24   
    175        1       7      25   
    176        1       8       1   
    177        1       8       2   
    178        1       8       3   
    179        1       8       4   
    180        1       8       5   
    181        1       8       6   
    182        1       8       7   
    183        1       8       8   
    184        1       8       9   
    185        1       8      10   
    186        1       8      11   
    187        1       8      12   
    188        1       8      13   
    189        1       8      14   
    190        1       8      15   
    191        1       8      16   
    192        1       8      17   
    193        1       8      18   
    194        1       8      19   
    195        1       8      20   
    196        1       8      21   
    197        1       8      22   
    198        1       8      23   
    199        1       8      24   
    200        1       8      25   
    201        1       9       1   
    202        1       9       2   
    203        1       9       3   
    204        1       9       4   
    205        1       9       5   
    206        1       9       6   
    207        1       9       7   
    208        1       9       8   
    209        1       9       9   
    210        1       9      10   
    211        1       9      11   
    212        1       9      12   
    213        1       9      13   
    214        1       9      14   
    215        1       9      15   
    216        1       9      16   
    217        1       9      17   
    218        1       9      18   
    219        1       9      19   
    220        1       9      20   
    221        1       9      21   
    222        1       9      22   
    223        1       9      23   
    224        1       9      24   
    225        1       9      25   
    226        1      10       1   
    227        1      10       2   
    228        1      10       3   
    229        1      10       4   
    230        1      10       5   
    231        1      10       6   
    232        1      10       7   
    233        1      10       8   
    234        1      10       9   
    235        1      10      10   
    236        1      10      11   
    237        1      10      12   
    238        1      10      13   
    239        1      10      14   
    240        1      10      15   
    241        1      10      16   
    242        1      10      17   
    243        1      10      18   
    244        1      10      19   
    245        1      10      20   
    246        1      10      21   
    247        1      10      22   
    248        1      10      23   
    249        1      10      24   
    250        1      10      25   
    251        1      11       1   
    252        1      11       2   
    253        1      11       3   
    254        1      11       4   
    255        1      11       5   
    256        1      11       6   
    257        1      11       7   
    258        1      11       8   
    259        1      11       9   
    260        1      11      10   
    261        1      11      11   
    262        1      11      12   
    263        1      11      13   
    264        1      11      14   
    265        1      11      15   
    266        1      11      16   
    267        1      11      17   
    268        1      11      18   
    269        1      11      19   
    270        1      11      20   
    271        1      11      21   
    272        1      11      22   
    273        1      11      23   
    274        1      11      24   
    275        1      11      25   
    276        1      12       1   
    277        1      12       2   
    278        1      12       3   
    279        1      12       4   
    280        1      12       5   
    281        1      12       6   
    282        1      12       7   
    283        1      12       8   
    284        1      12       9   
    285        1      12      10   
    286        1      12      11   
    287        1      12      12   
    288        1      12      13   
    289        1      12      14   
    290        1      12      15   
    291        1      12      16   
    292        1      12      17   
    293        1      12      18   
    294        1      12      19   
    295        1      12      20   
    296        1      12      21   
    297        1      12      22   
    298        1      12      23   
    299        1      12      24   
    300        1      12      25   
    301        1      13       1   
    302        1      13       2   
    303        1      13       3   
    304        1      13       4   
    305        1      13       5   
    306        1      13       6   
    307        1      13       7   
    308        1      13       8   
    309        1      13       9   
    310        1      13      10   
    311        1      13      11   
    312        1      13      12   
    313        1      13      13   
    314        1      13      14   
    315        1      13      15   
    316        1      13      16   
    317        1      13      17   
    318        1      13      18   
    319        1      13      19   
    320        1      13      20   
    321        1      13      21   
    322        1      13      22   
    323        1      13      23   
    324        1      13      24   
    325        1      13      25   
    326        1      14       1   
    327        1      14       2   
    328        1      14       3   
    329        1      14       4   
    330        1      14       5   
    331        1      14       6   
    332        1      14       7   
    333        1      14       8   
    334        1      14       9   
    335        1      14      10   
    336        1      14      11   
    337        1      14      12   
    338        1      14      13   
    339        1      14      14   
    340        1      14      15   
    341        1      14      16   
    342        1      14      17   
    343        1      14      18   
    344        1      14      19   
    345        1      14      20   
    346        1      14      21   
    347        1      14      22   
    348        1      14      23   
    349        1      14      24   
    350        1      14      25   
    351        1      15       1   
    352        1      15       2   
    353        1      15       3   
    354        1      15       4   
    355        1      15       5   
    356        1      15       6   
    357        1      15       7   
    358        1      15       8   
    359        1      15       9   
    360        1      15      10   
    361        1      15      11   
    362        1      15      12   
    363        1      15      13   
    364        1      15      14   
    365        1      15      15   
    366        1      15      16   
    367        1      15      17   
    368        1      15      18   
    369        1      15      19   
    370        1      15      20   
    371        1      15      21   
    372        1      15      22   
    373        1      15      23   
    374        1      15      24   
    375        1      15      25   
    376        1      16       1   
    377        1      16       2   
    378        1      16       3   
    379        1      16       4   
    380        1      16       5   
    381        1      16       6   
    382        1      16       7   
    383        1      16       8   
    384        1      16       9   
    385        1      16      10   
    386        1      16      11   
    387        1      16      12   
    388        1      16      13   
    389        1      16      14   
    390        1      16      15   
    391        1      16      16   
    392        1      16      17   
    393        1      16      18   
    394        1      16      19   
    395        1      16      20   
    396        1      16      21   
    397        1      16      22   
    398        1      16      23   
    399        1      16      24   
    400        1      16      25   
    401        1      17       1   
    402        1      17       2   
    403        1      17       3   
    404        1      17       4   
    405        1      17       5   
    406        1      17       6   
    407        1      17       7   
    408        1      17       8   
    409        1      17       9   
    410        1      17      10   
    411        1      17      11   
    412        1      17      12   
    413        1      17      13   
    414        1      17      14   
    415        1      17      15   
    416        1      17      16   
    417        1      17      17   
    418        1      17      18   
    419        1      17      19   
    420        1      17      20   
    421        1      17      21   
    422        1      17      22   
    423        1      17      23   
    424        1      17      24   
    425        1      17      25   
    426        1      18       1   
    427        1      18       2   
    428        1      18       3   
    429        1      18       4   
    430        1      18       5   
    431        1      18       6   
    432        1      18       7   
    433        1      18       8   
    434        1      18       9   
    435        1      18      10   
    436        1      18      11   
    437        1      18      12   
    438        1      18      13   
    439        1      18      14   
    440        1      18      15   
    441        1      18      16   
    442        1      18      17   
    443        1      18      18   
    444        1      18      19   
    445        1      18      20   
    446        1      18      21   
    447        1      18      22   
    448        1      18      23   
    449        1      18      24   
    450        1      18      25   
    451        1      19       1   
    452        1      19       2   
    453        1      19       3   
    454        1      19       4   
    455        1      19       5   
    456        1      19       6   
    457        1      19       7   
    458        1      19       8   
    459        1      19       9   
    460        1      19      10   
    461        1      19      11   
    462        1      19      12   
    463        1      19      13   
    464        1      19      14   
    465        1      19      15   
    466        1      19      16   
    467        1      19      17   
    468        1      19      18   
    469        1      19      19   
    470        1      19      20   
    471        1      19      21   
    472        1      19      22   
    473        1      19      23   
    474        1      19      24   
    475        1      19      25   
    476        1      20       1   
    477        1      20       2   
    478        1      20       3   
    479        1      20       4   
    480        1      20       5   
    481        1      20       6   
    482        1      20       7   
    483        1      20       8   
    484        1      20       9   
    485        1      20      10   
    486        1      20      11   
    487        1      20      12   
    488        1      20      13   
    489        1      20      14   
    490        1      20      15   
    491        1      20      16   
    492        1      20      17   
    493        1      20      18   
    494        1      20      19   
    495        1      20      20   
    496        1      20      21   
    497        1      20      22   
    498        1      20      23   
    499        1      20      24   
    500        1      20      25   
 ----------------------------------


 ----------------------------------
  CHD NO.    LAYER    ROW     COL  
 ----------------------------------
     1         1       1       1   
     2         1       1      25   
     3         1       2       1   
     4         1       2      25   
     5         1       3       1   
     6         1       3      25   
     7         1       4       1   
     8         1       4      25   
     9         1       5       1   
     10        1       5      25   
     11        1       6       1   
     12        1       6      25   
     13        1       7       1   
     14        1       7      25   
     15        1       8       1   
     16        1       8      25   
     17        1       9       1   
     18        1       9      25   
     19        1      10       1   
     20        1      10      25   
     21        1      11       1   
     22        1      11      25   
     23        1      12       1   
     24        1      12      25   
     25        1      13       1   
     26        1      13      25   
     27        1      14       1   
     28        1      14      25   
     29        1      15       1   
     30        1      15      25   
     31        1      16       1   
     32        1      16      25   
     33        1      17       1   
     34        1      17      25   
     35        1      18       1   
     36        1      18      25   
     37        1      19       1   
     38        1      19      25   
     39        1      20       1   
     40        1      20      25   
 ----------------------------------



 SLN_1 INNER ITERATION SUMMARY
 --------------------------------------------------------------------------------------------------------------------------------------
      TOTAL      OUTER      INNER                                                            MAXIMUM                                   
  ITERATION  ITERATION  ITERATION  MAXIMUM CHANGE      MAXIMUM CHANGE MODEL-(CELLID)        RESIDUAL    MAXIMUM RESIDUAL MODEL-(CELLID)
 --------------------------------------------------------------------------------------------------------------------------------------
          1          1          1      -9.5263317                     1_GWF-(1,5,24)       3528.8360                    1_GWF-(2,12,25)
          2          1          2      -3.0895985                    1_GWF-(2,20,20)      -629.90233                     1_GWF-(2,12,1)
          3          1          3     -0.52761050                     1_GWF-(1,3,17)      -207.50122                     1_GWF-(2,12,1)
          4          1          4      0.28441686                     1_GWF-(1,12,8)      -55.649203                     1_GWF-(2,15,1)
          5          1          5      0.13979685                     1_GWF-(1,17,8)      -19.574941                     1_GWF-(2,15,4)
          6          1          6  8.93997024E-02                     1_GWF-(1,19,9)      -8.7629428                     1_GWF-(2,15,4)
          7          1          7  4.37517876E-02                    1_GWF-(1,20,11)      -4.7994814                     1_GWF-(2,15,5)
          8          1          8  3.58428970E-02                    1_GWF-(1,20,12)      -3.1798860                    1_GWF-(2,14,11)
          9          1          9  1.00646639E-02                    1_GWF-(2,16,14)      -2.0303223                     1_GWF-(2,15,7)
         10          1         10 -2.04262350E-02                    1_GWF-(2,20,12)      -3.1005874                     1_GWF-(2,15,7)
         11          1         11  6.78814470E-02                    1_GWF-(2,19,12)      0.99415170                     1_GWF-(2,15,7)
         12          1         12 -1.25905916E-02                    1_GWF-(2,19,12)      0.16549266                    1_GWF-(2,11,25)
         13          1         13 -3.14504153E-02                    1_GWF-(2,20,12)      -1.7578220                    1_GWF-(2,15,11)
         14          1         14  2.88527177E-02                    1_GWF-(2,20,12)  9.98974176E-03                    1_GWF-(2,15,11)
         15          1         15 -1.36941208E-04                    1_GWF-(2,20,12)  1.26684582E-03                    1_GWF-(2,11,25)
         16          1         16 -1.78036848E-05                    1_GWF-(2,20,12)  1.69701422E-04                    1_GWF-(2,11,25)
         17          1         17 -2.44899566E-06                    1_GWF-(2,20,12)  2.32806774E-05                    1_GWF-(2,11,25)
         18          1         18 -4.79068743E-07                    1_GWF-(2,20,12) -7.92472564E-06                    1_GWF-(2,11,25)
         19          1         19  1.33413826E-07                    1_GWF-(2,19,13)  7.54543608E-07                    1_GWF-(2,14,10)
         20          1         20 -8.09709188E-09                     1_GWF-(1,4,11)  1.03023044E-07                     1_GWF-(2,15,3)
         21          2          1 -8.83481001E-10                      1_GWF-(1,1,9)  3.57321230E-08                    1_GWF-(2,11,25)
 --------------------------------------------------------------------------------------------------------------------------------------


 UBDSV1 SAVING           STO-SS ON UNIT   1015 AT TIME STEP      1, STRESS PERIOD      1
 UBDSV1 SAVING     FLOW-JA-FACE ON UNIT   1015 AT TIME STEP      1, STRESS PERIOD      1
 UBDSV06 SAVING       DATA-SPDIS IN MODEL FLOW_MODEL       PACKAGE NPF             CONNECTED TO MODEL FLOW_MODEL       PACKAGE NPF              ON UNIT   1015 AT TIME STEP      1, STRESS PERIOD      1
 UBDSV06 SAVING             RCHA IN MODEL FLOW_MODEL       PACKAGE FLOW_MODEL      CONNECTED TO MODEL FLOW_MODEL       PACKAGE RCHA_0           ON UNIT   1015 AT TIME STEP      1, STRESS PERIOD      1
 UBDSV06 SAVING              CHD IN MODEL FLOW_MODEL       PACKAGE FLOW_MODEL      CONNECTED TO MODEL FLOW_MODEL       PACKAGE CHD_0            ON UNIT   1015 AT TIME STEP      1, STRESS PERIOD      1

    CALCULATED INTERCELL FLOW FOR PERIOD 1 STEP 1
(1,1,1): (1,1,2) -170.117 (1,2,1) 0.00000 (2,1,1) -139.979
(1,1,2): (1,1,1) 170.117 (1,1,3) -160.734 (1,2,2) -0.736577 (2,1,2) -18.6458
(1,1,3): (1,1,2) 160.734 (1,1,4) -163.296 (1,2,3) -1.05751 (2,1,3) -6.38035
(1,1,4): (1,1,3) 163.296 (1,1,5) -167.047 (1,2,4) -1.10887 (2,1,4) -5.14014
(1,1,5): (1,1,4) 167.047 (1,1,6) -170.999 (1,2,5) -1.03334 (2,1,5) -5.01462
(1,1,6): (1,1,5) 170.999 (1,1,7) -175.074 (1,2,6) -0.923173 (2,1,6) -5.00187
(1,1,7): (1,1,6) 175.074 (1,1,8) -179.253 (1,2,7) -0.820821 (2,1,7) -5.00055
(1,1,8): (1,1,7) 179.253 (1,1,9) -183.514 (1,2,8) -0.738251 (2,1,8) -5.00040
(1,1,9): (1,1,8) 183.514 (1,1,10) -187.841 (1,2,9) -0.673110 (2,1,9) -5.00037
(1,1,10): (1,1,9) 187.841 (1,1,11) -192.222 (1,2,10) -0.617959 (2,1,10) -5.00036
(1,1,11): (1,1,10) 192.222 (1,1,12) -196.658 (1,2,11) -0.564462 (2,1,11) -5.00036
(1,1,12): (1,1,11) 196.658 (1,1,13) -201.153 (1,2,12) -0.504792 (2,1,12) -5.00034
(1,1,13): (1,1,12) 201.153 (1,1,14) -205.720 (1,2,13) -0.431744 (2,1,13) -5.00032
(1,1,14): (1,1,13) 205.720 (1,1,15) -210.382 (1,2,14) -0.338330 (2,1,14) -5.00030
(1,1,15): (1,1,14) 210.382 (1,1,16) -215.164 (1,2,15) -0.217254 (2,1,15) -5.00027
(1,1,16): (1,1,15) 215.164 (1,1,17) -220.104 (1,2,16) -6.049683E-02 (2,1,16) -5.00022
(1,1,17): (1,1,16) 220.104 (1,1,18) -225.244 (1,2,17) 0.140632 (2,1,17) -5.00016
(1,1,18): (1,1,17) 225.244 (1,1,19) -230.638 (1,2,18) 0.394348 (2,1,18) -5.00006
(1,1,19): (1,1,18) 230.638 (1,1,20) -236.343 (1,2,19) 0.704831 (2,1,19) -4.99971
(1,1,20): (1,1,19) 236.343 (1,1,21) -242.410 (1,2,20) 1.06382 (2,1,20) -4.99722
(1,1,21): (1,1,20) 242.410 (1,1,22) -248.870 (1,2,21) 1.43395 (2,1,21) -4.97387
(1,1,22): (1,1,21) 248.870 (1,1,23) -255.847 (1,2,22) 1.72144 (2,1,22) -4.74483
(1,1,23): (1,1,22) 255.847 (1,1,24) -265.111 (1,2,23) 1.74670 (2,1,23) -2.48232
(1,1,24): (1,1,23) 265.111 (1,1,25) -296.257 (1,2,24) 1.25254 (2,1,24) 19.8938
(1,1,25): (1,1,24) 296.257 (1,2,25) 0.00000 (2,1,25) 241.252
(1,2,1): (1,1,1) 0.00000 (1,2,2) -170.853 (1,3,1) 0.00000 (2,2,1) -140.761
(1,2,2): (1,1,2) 0.736577 (1,2,1) 170.853 (1,2,3) -161.055 (1,3,2) -1.79013 (2,2,2) -18.7445
(1,2,3): (1,1,3) 1.05751 (1,2,2) 161.055 (1,2,4) -163.348 (1,3,3) -2.36697 (2,2,3) -6.39797
(1,2,4): (1,1,4) 1.10887 (1,2,3) 163.348 (1,2,5) -166.972 (1,3,4) -2.33819 (2,2,4) -5.14657
(1,2,5): (1,1,5) 1.03334 (1,2,4) 166.972 (1,2,6) -170.889 (1,3,5) -2.09712 (2,2,5) -5.01883
(1,2,6): (1,1,6) 0.923173 (1,2,5) 170.889 (1,2,7) -174.972 (1,3,6) -1.83503 (2,2,6) -5.00537
(1,2,7): (1,1,7) 0.820821 (1,2,6) 174.972 (1,2,8) -179.170 (1,3,7) -1.61866 (2,2,7) -5.00375
(1,2,8): (1,1,8) 0.738251 (1,2,7) 179.170 (1,2,9) -183.449 (1,3,8) -1.45601 (2,2,8) -5.00346
(1,2,9): (1,1,9) 0.673110 (1,2,8) 183.449 (1,2,10) -187.786 (1,3,9) -1.33325 (2,2,9) -5.00336
(1,2,10): (1,1,10) 0.617959 (1,2,9) 187.786 (1,2,11) -192.169 (1,3,10) -1.23135 (2,2,10) -5.00328
(1,2,11): (1,1,11) 0.564462 (1,2,10) 192.169 (1,2,12) -196.598 (1,3,11) -1.13225 (2,2,11) -5.00320
(1,2,12): (1,1,12) 0.504792 (1,2,11) 196.598 (1,2,13) -201.079 (1,3,12) -1.02022 (2,2,12) -5.00309
(1,2,13): (1,1,13) 0.431744 (1,2,12) 201.079 (1,2,14) -205.627 (1,3,13) -0.881246 (2,2,13) -5.00293
(1,2,14): (1,1,14) 0.338330 (1,2,13) 205.627 (1,2,15) -210.261 (1,3,14) -0.701914 (2,2,14) -5.00271
(1,2,15): (1,1,15) 0.217254 (1,2,14) 210.261 (1,2,16) -215.008 (1,3,15) -0.468042 (2,2,15) -5.00241
(1,2,16): (1,1,16) 6.049683E-02 (1,2,15) 215.008 (1,2,17) -219.902 (1,3,16) -0.163570 (2,2,16) -5.00202
(1,2,17): (1,1,17) -0.140632 (1,2,16) 219.902 (1,2,18) -224.990 (1,3,17) 0.230005 (2,2,17) -5.00149
(1,2,18): (1,1,18) -0.394348 (1,2,17) 224.990 (1,2,19) -230.328 (1,3,18) 0.732643 (2,2,18) -5.00077
(1,2,19): (1,1,19) -0.704831 (1,2,18) 230.328 (1,2,20) -235.984 (1,3,19) 1.36102 (2,2,19) -4.99958
(1,2,20): (1,1,20) -1.06382 (1,2,19) 235.984 (1,2,21) -242.040 (1,3,20) 2.11517 (2,2,20) -4.99588
(1,2,21): (1,1,21) -1.43395 (1,2,20) 242.040 (1,2,22) -248.583 (1,3,21) 2.94722 (2,2,21) -4.97055
(1,2,22): (1,1,22) -1.72144 (1,2,21) 248.583 (1,2,23) -255.821 (1,3,22) 3.69718 (2,2,22) -4.73692
(1,2,23): (1,1,23) -1.74670 (1,2,22) 255.821 (1,2,24) -265.605 (1,3,23) 3.98495 (2,2,23) -2.45443
(1,2,24): (1,1,24) -1.25254 (1,2,23) 265.605 (1,2,25) -297.510 (1,3,24) 3.09572 (2,2,24) 20.0615
(1,2,25): (1,1,25) 0.00000 (1,2,24) 297.510 (1,3,25) 0.00000 (2,2,25) 242.591
(1,3,1): (1,2,1) 0.00000 (1,3,2) -172.643 (1,4,1) 0.00000 (2,3,1) -143.190
(1,3,2): (1,2,2) 1.79013 (1,3,1) 172.643 (1,3,3) -161.632 (1,4,2) -3.67259 (2,3,2) -19.1288
(1,3,3): (1,2,3) 2.36697 (1,3,2) 161.632 (1,3,4) -163.319 (1,4,3) -4.17575 (2,3,3) -6.50429
(1,3,4): (1,2,4) 2.33819 (1,3,3) 163.319 (1,3,5) -166.731 (1,4,4) -3.72453 (2,3,4) -5.20185
(1,3,5): (1,2,5) 2.09712 (1,3,4) 166.731 (1,3,6) -170.627 (1,4,5) -3.14137 (2,3,5) -5.05937
(1,3,6): (1,2,6) 1.83503 (1,3,5) 170.627 (1,3,7) -174.756 (1,4,6) -2.66657 (2,3,6) -5.03997
(1,3,7): (1,2,7) 1.61866 (1,3,6) 174.756 (1,3,8) -179.008 (1,4,7) -2.33090 (2,3,7) -5.03562
(1,3,8): (1,2,8) 1.45601 (1,3,7) 179.008 (1,3,9) -183.326 (1,4,8) -2.10336 (2,3,8) -5.03400
(1,3,9): (1,2,9) 1.33325 (1,3,8) 183.326 (1,3,10) -187.684 (1,4,9) -1.94273 (2,3,9) -5.03315
(1,3,10): (1,2,10) 1.23135 (1,3,9) 187.684 (1,3,11) -192.070 (1,4,10) -1.81273 (2,3,10) -5.03248
(1,3,11): (1,2,11) 1.13225 (1,3,10) 192.070 (1,3,12) -196.486 (1,4,11) -1.68449 (2,3,11) -5.03169
(1,3,12): (1,2,12) 1.02022 (1,3,11) 196.486 (1,3,13) -200.940 (1,4,12) -1.53507 (2,3,12) -5.03059
(1,3,13): (1,2,13) 0.881246 (1,3,12) 200.940 (1,3,14) -205.448 (1,4,13) -1.34501 (2,3,13) -5.02904
(1,3,14): (1,2,14) 0.701914 (1,3,13) 205.448 (1,3,15) -210.027 (1,4,14) -1.09587 (2,3,14) -5.02688
(1,3,15): (1,2,15) 0.468042 (1,3,14) 210.027 (1,3,16) -214.703 (1,4,15) -0.767882 (2,3,15) -5.02396
(1,3,16): (1,2,16) 0.163570 (1,3,15) 214.703 (1,3,17) -219.509 (1,4,16) -0.337677 (2,3,16) -5.02009
(1,3,17): (1,2,17) -0.230005 (1,3,16) 219.509 (1,3,18) -224.488 (1,4,17) 0.223779 (2,3,17) -5.01495
(1,3,18): (1,2,18) -0.732643 (1,3,17) 224.488 (1,3,19) -229.699 (1,4,18) 0.952537 (2,3,18) -5.00810
(1,3,19): (1,2,19) -1.36102 (1,3,18) 229.699 (1,3,20) -235.230 (1,4,19) 1.89044 (2,3,19) -4.99861
(1,3,20): (1,2,20) -2.11517 (1,3,19) 235.230 (1,3,21) -241.208 (1,4,20) 3.07594 (2,3,20) -4.98319
(1,3,21): (1,2,21) -2.94722 (1,3,20) 241.208 (1,3,22) -247.833 (1,4,21) 4.51197 (2,3,21) -4.93996
(1,3,22): (1,2,22) -3.69718 (1,3,21) 247.833 (1,3,23) -255.534 (1,4,22) 6.07139 (2,3,22) -4.67318
(1,3,23): (1,2,23) -3.98495 (1,3,22) 255.534 (1,3,24) -266.495 (1,4,23) 7.24122 (2,3,23) -2.29547
(1,3,24): (1,2,24) -3.09572 (1,3,23) 266.495 (1,3,25) -300.606 (1,4,24) 6.49888 (2,3,24) 20.7080
(1,3,25): (1,2,25) 0.00000 (1,3,24) 300.606 (1,4,25) 0.00000 (2,3,25) 246.782
(1,4,1): (1,3,1) 0.00000 (1,4,2) -176.316 (1,5,1) 0.00000 (2,4,1) -151.870
(1,4,2): (1,3,2) 3.67259 (1,4,1) 176.316 (1,4,3) -162.135 (1,5,2) -6.74653 (2,4,2) -21.1068
(1,4,3): (1,3,3) 4.17575 (1,4,2) 162.135 (1,4,4) -162.868 (1,5,3) -6.12041 (2,4,3) -7.32280
(1,4,4): (1,3,4) 3.72453 (1,4,3) 162.868 (1,4,5) -166.148 (1,5,4) -4.73264 (2,4,4) -5.71200
(1,4,5): (1,3,5) 3.14137 (1,4,4) 166.148 (1,4,6) -170.152 (1,5,5) -3.68488 (2,4,5) -5.45175
(1,4,6): (1,3,6) 2.66657 (1,4,5) 170.152 (1,4,7) -174.420 (1,5,6) -3.01969 (2,4,6) -5.37926
(1,4,7): (1,3,7) 2.33090 (1,4,6) 174.420 (1,4,8) -178.780 (1,5,7) -2.62092 (2,4,7) -5.34971
(1,4,8): (1,3,8) 2.10336 (1,4,7) 178.780 (1,4,9) -183.166 (1,5,8) -2.38205 (2,4,8) -5.33574
(1,4,9): (1,3,9) 1.94273 (1,4,8) 183.166 (1,4,10) -187.554 (1,5,9) -2.22678 (2,4,9) -5.32794
(1,4,10): (1,3,10) 1.81273 (1,4,9) 187.554 (1,4,11) -191.942 (1,5,10) -2.10320 (2,4,10) -5.32163
(1,4,11): (1,3,11) 1.68449 (1,4,10) 191.942 (1,4,12) -196.337 (1,5,11) -1.97558 (2,4,11) -5.31404
(1,4,12): (1,3,12) 1.53507 (1,4,11) 196.337 (1,4,13) -200.750 (1,5,12) -1.81784 (2,4,12) -5.30332
(1,4,13): (1,3,13) 1.34501 (1,4,12) 200.750 (1,4,14) -205.199 (1,5,13) -1.60885 (2,4,13) -5.28803
(1,4,14): (1,3,14) 1.09587 (1,4,13) 205.199 (1,4,15) -209.699 (1,5,14) -1.32873 (2,4,14) -5.26683
(1,4,15): (1,3,15) 0.767882 (1,4,14) 209.699 (1,4,16) -214.273 (1,5,15) -0.955732 (2,4,15) -5.23817
(1,4,16): (1,3,16) 0.337677 (1,4,15) 214.273 (1,4,17) -218.947 (1,5,16) -0.463032 (2,4,16) -5.20009
(1,4,17): (1,3,17) -0.223779 (1,4,16) 218.947 (1,4,18) -223.759 (1,5,17) 0.185068 (2,4,17) -5.14977
(1,4,18): (1,3,18) -0.952537 (1,4,17) 223.759 (1,4,19) -228.762 (1,5,18) 1.03811 (2,4,18) -5.08293
(1,4,19): (1,3,19) -1.89044 (1,4,18) 228.762 (1,4,20) -234.045 (1,5,19) 2.16607 (2,4,19) -4.99239
(1,4,20): (1,3,20) -3.07594 (1,4,19) 234.045 (1,4,21) -239.772 (1,5,20) 3.66675 (2,4,20) -4.86378
(1,4,21): (1,3,21) -4.51197 (1,4,20) 239.772 (1,4,22) -246.273 (1,5,21) 5.66605 (2,4,21) -4.65266
(1,4,22): (1,3,22) -6.07139 (1,4,21) 246.273 (1,4,23) -254.364 (1,5,22) 8.26781 (2,4,22) -4.10581
(1,4,23): (1,3,23) -7.24122 (1,4,22) 254.364 (1,4,24) -267.237 (1,5,23) 11.2402 (2,4,23) -1.12600
(1,4,24): (1,3,24) -6.49888 (1,4,23) 267.237 (1,4,25) -307.105 (1,5,24) 12.4186 (2,4,24) 23.9481
(1,4,25): (1,3,25) 0.00000 (1,4,24) 307.105 (1,5,25) 0.00000 (2,4,25) 261.753
(1,5,1): (1,4,1) 0.00000 (1,5,2) -183.062 (1,6,1) 0.00000 (2,5,1) -193.533
(1,5,2): (1,4,2) 6.74653 (1,5,1) 183.062 (1,5,3) -161.509 (1,6,2) -3.34080 (2,5,2) -34.9591
(1,5,3): (1,4,3) 6.12041 (1,5,2) 161.509 (1,5,4) -161.480 (1,6,3) -1.59895 (2,5,3) -14.5506
(1,5,4): (1,4,4) 4.73264 (1,5,3) 161.480 (1,5,5) -165.100 (1,6,4) -0.545189 (2,5,4) -10.5676
(1,5,5): (1,4,5) 3.68488 (1,5,4) 165.100 (1,5,6) -169.487 (1,6,5) -2.717606E-02 (2,5,5) -9.27038
(1,5,6): (1,4,6) 3.01969 (1,5,5) 169.487 (1,5,7) -174.021 (1,6,6) 0.224012 (2,5,6) -8.70966
(1,5,7): (1,4,7) 2.62092 (1,5,6) 174.021 (1,5,8) -178.541 (1,6,7) 0.345168 (2,5,7) -8.44593
(1,5,8): (1,4,8) 2.38205 (1,5,7) 178.541 (1,5,9) -183.010 (1,6,8) 0.404362 (2,5,8) -8.31723
(1,5,9): (1,4,9) 2.22678 (1,5,8) 183.010 (1,5,10) -187.430 (1,6,9) 0.437721 (2,5,9) -8.24480
(1,5,10): (1,4,10) 2.10320 (1,5,9) 187.430 (1,5,11) -191.814 (1,6,10) 0.465753 (2,5,10) -8.18511
(1,5,11): (1,4,11) 1.97558 (1,5,10) 191.814 (1,5,12) -196.179 (1,6,11) 0.500998 (2,5,11) -8.11180
(1,5,12): (1,4,12) 1.81784 (1,5,11) 196.179 (1,5,13) -200.541 (1,6,12) 0.551963 (2,5,12) -8.00714
(1,5,13): (1,4,13) 1.60885 (1,5,12) 200.541 (1,5,14) -204.918 (1,6,13) 0.625354 (2,5,13) -7.85720
(1,5,14): (1,4,14) 1.32873 (1,5,13) 204.918 (1,5,15) -209.326 (1,6,14) 0.727536 (2,5,14) -7.64883
(1,5,15): (1,4,15) 0.955732 (1,5,14) 209.326 (1,5,16) -213.780 (1,6,15) 0.865708 (2,5,15) -7.36716
(1,5,16): (1,4,16) 0.463032 (1,5,15) 213.780 (1,5,17) -218.299 (1,6,16) 1.04915 (2,5,16) -6.99303
(1,5,17): (1,4,17) -0.185068 (1,5,16) 218.299 (1,5,18) -222.906 (1,6,17) 1.29094 (2,5,17) -6.49930
(1,5,18): (1,4,18) -1.03811 (1,5,17) 222.906 (1,5,19) -227.634 (1,6,18) 1.61073 (2,5,18) -5.84490
(1,5,19): (1,4,19) -2.16607 (1,5,18) 227.634 (1,5,20) -232.544 (1,6,19) 2.03993 (2,5,19) -4.96335
(1,5,20): (1,4,20) -3.66675 (1,5,19) 232.544 (1,5,21) -237.773 (1,6,20) 2.63224 (2,5,20) -3.73708
(1,5,21): (1,4,21) -5.66605 (1,5,20) 237.773 (1,5,22) -243.672 (1,6,21) 3.48737 (2,5,21) -1.92237
(1,5,22): (1,4,22) -8.26781 (1,5,21) 243.672 (1,5,23) -251.391 (1,6,22) 4.80568 (2,5,22) 1.18212
(1,5,23): (1,4,23) -11.2402 (1,5,22) 251.391 (1,5,24) -266.058 (1,6,23) 6.96592 (2,5,23) 8.94125
(1,5,24): (1,4,24) -12.4186 (1,5,23) 266.058 (1,5,25) -319.523 (1,6,24) 9.84168 (2,5,24) 46.0416
(1,5,25): (1,4,25) 0.00000 (1,5,24) 319.523 (1,6,25) 0.00000 (2,5,25) 333.123
(1,6,1): (1,5,1) 0.00000 (1,6,2) -20.1437 (1,7,1) 0.00000 (2,6,1) -79.2090
(1,6,2): (1,5,2) 3.34080 (1,6,1) 20.1437 (1,6,3) -15.1929 (1,7,2) -1.89440 (2,6,2) -16.3972
(1,6,3): (1,5,3) 1.59895 (1,6,2) 15.1929 (1,6,4) -15.5684 (1,7,3) -1.59130 (2,6,3) -9.63211
(1,6,4): (1,5,4) 0.545189 (1,6,3) 15.5684 (1,6,5) -16.2251 (1,7,4) -1.25865 (2,6,4) -8.62989
(1,6,5): (1,5,5) 2.717606E-02 (1,6,4) 16.2251 (1,6,6) -16.8106 (1,7,5) -1.07326 (2,6,5) -8.36843
(1,6,6): (1,5,6) -0.224012 (1,6,5) 16.8106 (1,6,7) -17.3355 (1,7,6) -0.986962 (2,6,6) -8.26410
(1,6,7): (1,5,7) -0.345168 (1,6,6) 17.3355 (1,6,8) -17.8216 (1,7,7) -0.952810 (2,6,7) -8.21593
(1,6,8): (1,5,8) -0.404362 (1,6,7) 17.8216 (1,6,9) -18.2827 (1,7,8) -0.942005 (2,6,8) -8.19251
(1,6,9): (1,5,9) -0.437721 (1,6,8) 18.2827 (1,6,10) -18.7276 (1,7,9) -0.938045 (2,6,9) -8.17933
(1,6,10): (1,5,10) -0.465753 (1,6,9) 18.7276 (1,6,11) -19.1620 (1,7,10) -0.931350 (2,6,10) -8.16848
(1,6,11): (1,5,11) -0.500998 (1,6,10) 19.1620 (1,6,12) -19.5898 (1,7,11) -0.916018 (2,6,11) -8.15515
(1,6,12): (1,5,12) -0.551963 (1,6,11) 19.5898 (1,6,13) -20.0138 (1,7,12) -0.887983 (2,6,12) -8.13612
(1,6,13): (1,5,13) -0.625354 (1,6,12) 20.0138 (1,6,14) -20.4356 (1,7,13) -0.843921 (2,6,13) -8.10886
(1,6,14): (1,5,14) -0.727536 (1,6,13) 20.4356 (1,6,15) -20.8566 (1,7,14) -0.780541 (2,6,14) -8.07097
(1,6,15): (1,5,15) -0.865708 (1,6,14) 20.8566 (1,6,16) -21.2771 (1,7,15) -0.694000 (2,6,15) -8.01976
(1,6,16): (1,5,16) -1.04915 (1,6,15) 21.2771 (1,6,17) -21.6969 (1,7,16) -0.579281 (2,6,16) -7.95174
(1,6,17): (1,5,17) -1.29094 (1,6,16) 21.6969 (1,6,18) -22.1147 (1,7,17) -0.429330 (2,6,17) -7.86197
(1,6,18): (1,5,18) -1.61073 (1,6,17) 22.1147 (1,6,19) -22.5273 (1,7,18) -0.233683 (2,6,18) -7.74299
(1,6,19): (1,5,19) -2.03993 (1,6,18) 22.5273 (1,6,20) -22.9286 (1,7,19) 2.392980E-02 (2,6,19) -7.58266
(1,6,20): (1,5,20) -2.63224 (1,6,19) 22.9286 (1,6,21) -23.3069 (1,7,20) 0.369767 (2,6,20) -7.35924
(1,6,21): (1,5,21) -3.48737 (1,6,20) 23.3069 (1,6,22) -23.6421 (1,7,21) 0.846799 (2,6,21) -7.02428
(1,6,22): (1,5,22) -4.80568 (1,6,21) 23.6421 (1,6,23) -23.9510 (1,7,22) 1.52005 (2,6,22) -6.40543
(1,6,23): (1,5,23) -6.96592 (1,6,22) 23.9510 (1,6,24) -25.0242 (1,7,23) 2.43711 (2,6,23) -4.39803
(1,6,24): (1,5,24) -9.84168 (1,6,23) 25.0242 (1,6,25) -37.3652 (1,7,24) 3.21259 (2,6,24) 8.97014
(1,6,25): (1,5,25) 0.00000 (1,6,24) 37.3652 (1,7,25) 0.00000 (2,6,25) 135.632
(1,7,1): (1,6,1) 0.00000 (1,7,2) -22.0381 (1,8,1) 0.00000 (2,7,1) -97.1493
(1,7,2): (1,6,2) 1.89440 (1,7,1) 22.0381 (1,7,3) -14.8898 (1,8,2) -1.13456 (2,7,2) -17.9081
(1,7,3): (1,6,3) 1.59130 (1,7,2) 14.8898 (1,7,4) -15.2358 (1,8,3) -1.29288 (2,7,3) -9.95244
(1,7,4): (1,6,4) 1.25865 (1,7,3) 15.2358 (1,7,5) -16.0397 (1,8,4) -1.32957 (2,7,4) -9.12519
(1,7,5): (1,6,5) 1.07326 (1,7,4) 16.0397 (1,7,6) -16.7243 (1,8,5) -1.36317 (2,7,5) -9.02549
(1,7,6): (1,6,6) 0.986962 (1,7,5) 16.7243 (1,7,7) -17.3013 (1,8,6) -1.40274 (2,7,6) -9.00716
(1,7,7): (1,6,7) 0.952810 (1,7,6) 17.3013 (1,7,8) -17.8108 (1,8,7) -1.44210 (2,7,7) -9.00127
(1,7,8): (1,6,8) 0.942005 (1,7,7) 17.8108 (1,7,9) -18.2787 (1,8,8) -1.47536 (2,7,8) -8.99867
(1,7,9): (1,6,9) 0.938045 (1,7,8) 18.2787 (1,7,10) -18.7209 (1,8,9) -1.49864 (2,7,9) -8.99724
(1,7,10): (1,6,10) 0.931350 (1,7,9) 18.7209 (1,7,11) -19.1467 (1,8,10) -1.50948 (2,7,10) -8.99609
(1,7,11): (1,6,11) 0.916018 (1,7,10) 19.1467 (1,7,12) -19.5618 (1,8,11) -1.50618 (2,7,11) -8.99471
(1,7,12): (1,6,12) 0.887983 (1,7,11) 19.5618 (1,7,13) -19.9697 (1,8,12) -1.48732 (2,7,12) -8.99276
(1,7,13): (1,6,13) 0.843921 (1,7,12) 19.9697 (1,7,14) -20.3723 (1,8,13) -1.45140 (2,7,13) -8.98998
(1,7,14): (1,6,14) 0.780541 (1,7,13) 20.3723 (1,7,15) -20.7701 (1,8,14) -1.39663 (2,7,14) -8.98613
(1,7,15): (1,6,15) 0.694000 (1,7,14) 20.7701 (1,7,16) -21.1624 (1,8,15) -1.32073 (2,7,15) -8.98092
(1,7,16): (1,6,16) 0.579281 (1,7,15) 21.1624 (1,7,17) -21.5470 (1,8,16) -1.22069 (2,7,16) -8.97400
(1,7,17): (1,6,17) 0.429330 (1,7,16) 21.5470 (1,7,18) -21.9191 (1,8,17) -1.09241 (2,7,17) -8.96486
(1,7,18): (1,6,18) 0.233683 (1,7,17) 21.9191 (1,7,19) -22.2697 (1,8,18) -0.930350 (2,7,18) -8.95270
(1,7,19): (1,6,19) -2.392980E-02 (1,7,18) 22.2697 (1,7,20) -22.5828 (1,8,19) -0.726813 (2,7,19) -8.93614
(1,7,20): (1,6,20) -0.369767 (1,7,19) 22.5828 (1,7,21) -22.8299 (1,8,20) -0.471378 (2,7,20) -8.91176
(1,7,21): (1,6,21) -0.846799 (1,7,20) 22.8299 (1,7,22) -22.9688 (1,8,21) -0.151184 (2,7,21) -8.86308
(1,7,22): (1,6,22) -1.52005 (1,7,21) 22.9688 (1,7,23) -23.0340 (1,8,22) 0.243383 (2,7,22) -8.65821
(1,7,23): (1,6,23) -2.43711 (1,7,22) 23.0340 (1,7,24) -24.2487 (1,8,23) 0.688866 (2,7,23) -7.03702
(1,7,24): (1,6,24) -3.21259 (1,7,23) 24.2487 (1,7,25) -40.5778 (1,8,24) 0.987080 (2,7,24) 8.55465
(1,7,25): (1,6,25) 0.00000 (1,7,24) 40.5778 (1,8,25) 0.00000 (2,7,25) 164.252
(1,8,1): (1,7,1) 0.00000 (1,8,2) -23.1726 (1,9,1) 0.00000 (2,8,1) -104.708
(1,8,2): (1,7,2) 1.13456 (1,8,1) 23.1726 (1,8,3) -15.0481 (1,9,2) -0.587860 (2,8,2) -18.6712
(1,8,3): (1,7,3) 1.29288 (1,8,2) 15.0481 (1,8,4) -15.2725 (1,9,3) -1.03189 (2,8,3) -10.0366
(1,8,4): (1,7,4) 1.32957 (1,8,3) 15.2725 (1,8,5) -16.0733 (1,9,4) -1.36162 (2,8,4) -9.16713
(1,8,5): (1,7,5) 1.36317 (1,8,4) 16.0733 (1,8,6) -16.7638 (1,9,5) -1.59476 (2,8,5) -9.07786
(1,8,6): (1,7,6) 1.40274 (1,8,5) 16.7638 (1,8,7) -17.3407 (1,9,6) -1.75806 (2,8,6) -9.06781
(1,8,7): (1,7,7) 1.44210 (1,8,6) 17.3407 (1,8,8) -17.8440 (1,9,7) -1.87252 (2,8,7) -9.06623
(1,8,8): (1,7,8) 1.47536 (1,8,7) 17.8440 (1,8,9) -18.3020 (1,9,8) -1.95161 (2,8,8) -9.06577
(1,8,9): (1,7,9) 1.49864 (1,8,8) 18.3020 (1,8,10) -18.7317 (1,9,9) -2.00338 (2,8,9) -9.06554
(1,8,10): (1,7,10) 1.50948 (1,8,9) 18.7317 (1,8,11) -19.1434 (1,9,10) -2.03246 (2,8,10) -9.06537
(1,8,11): (1,7,11) 1.50618 (1,8,10) 19.1434 (1,8,12) -19.5429 (1,9,11) -2.04142 (2,8,11) -9.06521
(1,8,12): (1,7,12) 1.48732 (1,8,11) 19.5429 (1,8,13) -19.9338 (1,9,12) -2.03147 (2,8,12) -9.06500
(1,8,13): (1,7,13) 1.45140 (1,8,12) 19.9338 (1,8,14) -20.3175 (1,9,13) -2.00296 (2,8,13) -9.06473
(1,8,14): (1,7,14) 1.39663 (1,8,13) 20.3175 (1,8,15) -20.6942 (1,9,14) -1.95561 (2,8,14) -9.06436
(1,8,15): (1,7,15) 1.32073 (1,8,14) 20.6942 (1,8,16) -21.0624 (1,9,15) -1.88867 (2,8,15) -9.06387
(1,8,16): (1,7,16) 1.22069 (1,8,15) 21.0624 (1,8,17) -21.4187 (1,9,16) -1.80111 (2,8,16) -9.06321
(1,8,17): (1,7,17) 1.09241 (1,8,16) 21.4187 (1,8,18) -21.7570 (1,9,17) -1.69182 (2,8,17) -9.06233
(1,8,18): (1,7,18) 0.930350 (1,8,17) 21.7570 (1,8,19) -22.0662 (1,9,18) -1.56006 (2,8,18) -9.06113
(1,8,19): (1,7,19) 0.726813 (1,8,18) 22.0662 (1,8,20) -22.3274 (1,9,19) -1.40626 (2,8,19) -9.05934
(1,8,20): (1,7,20) 0.471378 (1,8,19) 22.3274 (1,8,21) -22.5097 (1,9,20) -1.23366 (2,8,20) -9.05538
(1,8,21): (1,7,21) 0.151184 (1,8,20) 22.5097 (1,8,22) -22.5743 (1,9,21) -1.05115 (2,8,21) -9.03548
(1,8,22): (1,7,22) -0.243383 (1,8,21) 22.5743 (1,8,23) -22.5885 (1,9,22) -0.876651 (2,8,22) -8.86576
(1,8,23): (1,7,23) -0.688866 (1,8,22) 22.5885 (1,8,24) -23.9505 (1,9,23) -0.733802 (2,8,23) -7.21532
(1,8,24): (1,7,24) -0.987080 (1,8,23) 23.9505 (1,8,25) -41.5649 (1,9,24) -0.596000 (2,8,24) 9.19751
(1,8,25): (1,7,25) 0.00000 (1,8,24) 41.5649 (1,9,25) 0.00000 (2,8,25) 172.915
(1,9,1): (1,8,1) 0.00000 (1,9,2) -23.7605 (1,10,1) 0.00000 (2,9,1) -105.926
(1,9,2): (1,8,2) 0.587860 (1,9,1) 23.7605 (1,9,3) -15.4921 (1,10,2) -0.181354 (2,9,2) -18.6749
(1,9,3): (1,8,3) 1.03189 (1,9,2) 15.4921 (1,9,4) -15.6022 (1,10,3) -1.00017 (2,9,3) -9.92167
(1,9,4): (1,8,4) 1.36162 (1,9,3) 15.6022 (1,9,5) -16.3064 (1,10,4) -1.61877 (2,9,4) -9.03861
(1,9,5): (1,8,5) 1.59476 (1,9,4) 16.3064 (1,9,6) -16.9271 (1,10,5) -2.02746 (2,9,5) -8.94660
(1,9,6): (1,8,6) 1.75806 (1,9,5) 16.9271 (1,9,7) -17.4551 (1,10,6) -2.29485 (2,9,6) -8.93520
(1,9,7): (1,8,7) 1.87252 (1,9,6) 17.4551 (1,9,8) -17.9231 (1,10,7) -2.47188 (2,9,7) -8.93266
(1,9,8): (1,8,8) 1.95161 (1,9,7) 17.9231 (1,9,9) -18.3538 (1,10,8) -2.58944 (2,9,8) -8.93149
(1,9,9): (1,8,9) 2.00338 (1,9,8) 18.3538 (1,9,10) -18.7608 (1,10,9) -2.66554 (2,9,9) -8.93079
(1,9,10): (1,8,10) 2.03246 (1,9,9) 18.7608 (1,9,11) -19.1523 (1,10,10) -2.71059 (2,9,10) -8.93036
(1,9,11): (1,8,11) 2.04142 (1,9,10) 19.1523 (1,9,12) -19.5330 (1,10,11) -2.73064 (2,9,11) -8.93013
(1,9,12): (1,8,12) 2.03147 (1,9,11) 19.5330 (1,9,13) -19.9053 (1,10,12) -2.72912 (2,9,12) -8.93007
(1,9,13): (1,8,13) 2.00296 (1,9,12) 19.9053 (1,9,14) -20.2701 (1,10,13) -2.70795 (2,9,13) -8.93015
(1,9,14): (1,8,14) 1.95561 (1,9,13) 20.2701 (1,9,15) -20.6272 (1,10,14) -2.66819 (2,9,14) -8.93034
(1,9,15): (1,8,15) 1.88867 (1,9,14) 20.6272 (1,9,16) -20.9748 (1,10,15) -2.61044 (2,9,15) -8.93065
(1,9,16): (1,8,16) 1.80111 (1,9,15) 20.9748 (1,9,17) -21.3094 (1,10,16) -2.53542 (2,9,16) -8.93104
(1,9,17): (1,8,17) 1.69182 (1,9,16) 21.3094 (1,9,18) -21.6252 (1,10,17) -2.44454 (2,9,17) -8.93149
(1,9,18): (1,8,18) 1.56006 (1,9,17) 21.6252 (1,9,19) -21.9124 (1,10,18) -2.34100 (2,9,18) -8.93193
(1,9,19): (1,8,19) 1.40626 (1,9,18) 21.9124 (1,9,20) -22.1548 (1,10,19) -2.23169 (2,9,19) -8.93215
(1,9,20): (1,8,20) 1.23366 (1,9,19) 22.1548 (1,9,21) -22.3272 (1,10,20) -2.13059 (2,9,20) -8.93066
(1,9,21): (1,8,21) 1.05115 (1,9,20) 22.3272 (1,9,22) -22.3998 (1,10,21) -2.06434 (2,9,21) -8.91422
(1,9,22): (1,8,22) 0.876651 (1,9,21) 22.3998 (1,9,23) -22.4456 (1,10,22) -2.07793 (2,9,22) -8.75287
(1,9,23): (1,8,23) 0.733802 (1,9,22) 22.4456 (1,9,24) -23.8127 (1,10,23) -2.21542 (2,9,23) -7.15133
(1,9,24): (1,8,24) 0.596000 (1,9,23) 23.8127 (1,9,25) -40.9689 (1,10,24) -2.28249 (2,9,24) 8.84272
(1,9,25): (1,8,25) 0.00000 (1,9,24) 40.9689 (1,10,25) 0.00000 (2,9,25) 168.762
(1,10,1): (1,9,1) 0.00000 (1,10,2) -23.9418 (1,11,1) 0.00000 (2,10,1) -98.6281
(1,10,2): (1,9,2) 0.181354 (1,10,1) 23.9418 (1,10,3) -16.3110 (1,11,2) -0.959876 (2,10,2) -16.8524
(1,10,3): (1,9,3) 1.00017 (1,10,2) 16.3110 (1,10,4) -16.2208 (1,11,3) -2.50767 (2,10,3) -8.58265
(1,10,4): (1,9,4) 1.61877 (1,10,3) 16.2208 (1,10,5) -16.7151 (1,11,4) -3.42382 (2,10,4) -7.70064
(1,10,5): (1,9,5) 2.02746 (1,10,4) 16.7151 (1,10,6) -17.1945 (1,11,5) -3.96777 (2,10,5) -7.58026
(1,10,6): (1,9,6) 2.29485 (1,10,5) 17.1945 (1,10,7) -17.6322 (1,11,6) -4.30912 (2,10,6) -7.54809
(1,10,7): (1,9,7) 2.47188 (1,10,6) 17.6322 (1,10,8) -18.0407 (1,11,7) -4.53162 (2,10,7) -7.53174
(1,10,8): (1,9,8) 2.58944 (1,10,7) 18.0407 (1,10,9) -18.4299 (1,11,8) -4.67881 (2,10,8) -7.52144
(1,10,9): (1,9,9) 2.66554 (1,10,8) 18.4299 (1,10,10) -18.8059 (1,11,9) -4.77476 (2,10,9) -7.51478
(1,10,10): (1,9,10) 2.71059 (1,10,9) 18.8059 (1,10,11) -19.1724 (1,11,10) -4.83338 (2,10,10) -7.51072
(1,10,11): (1,9,11) 2.73064 (1,10,10) 19.1724 (1,10,12) -19.5315 (1,11,11) -4.86287 (2,10,11) -7.50867
(1,10,12): (1,9,12) 2.72912 (1,10,11) 19.5315 (1,10,13) -19.8841 (1,11,12) -4.86819 (2,10,12) -7.50828
(1,10,13): (1,9,13) 2.70795 (1,10,12) 19.8841 (1,10,14) -20.2304 (1,11,13) -4.85236 (2,10,13) -7.50934
(1,10,14): (1,9,14) 2.66819 (1,10,13) 20.2304 (1,10,15) -20.5695 (1,11,14) -4.81738 (2,10,14) -7.51170
(1,10,15): (1,9,15) 2.61044 (1,10,14) 20.5695 (1,10,16) -20.8998 (1,11,15) -4.76488 (2,10,15) -7.51526
(1,10,16): (1,9,16) 2.53542 (1,10,15) 20.8998 (1,10,17) -21.2186 (1,11,16) -4.69677 (2,10,16) -7.51987
(1,10,17): (1,9,17) 2.44454 (1,10,16) 21.2186 (1,10,18) -21.5217 (1,11,17) -4.61610 (2,10,17) -7.52530
(1,10,18): (1,9,18) 2.34100 (1,10,17) 21.5217 (1,10,19) -21.8030 (1,11,18) -4.52848 (2,10,18) -7.53116
(1,10,19): (1,9,19) 2.23169 (1,10,18) 21.8030 (1,10,20) -22.0537 (1,11,19) -4.44450 (2,10,19) -7.53656
(1,10,20): (1,9,20) 2.13059 (1,10,19) 22.0537 (1,10,21) -22.2609 (1,11,20) -4.38440 (2,10,20) -7.53893
(1,10,21): (1,9,21) 2.06434 (1,10,20) 22.2609 (1,10,22) -22.4134 (1,11,21) -4.38758 (2,10,21) -7.52434
(1,10,22): (1,9,22) 2.07793 (1,10,21) 22.4134 (1,10,23) -22.5831 (1,11,22) -4.53238 (2,10,22) -7.37581
(1,10,23): (1,9,23) 2.21542 (1,10,22) 22.5831 (1,10,24) -23.8798 (1,11,23) -4.95557 (2,10,23) -5.96320
(1,10,24): (1,9,24) 2.28249 (1,10,23) 23.8798 (1,10,25) -38.6864 (1,11,24) -5.50712 (2,10,24) 8.03130
(1,10,25): (1,9,25) 0.00000 (1,10,24) 38.6864 (1,11,25) 0.00000 (2,10,25) 149.310
(1,11,1): (1,10,1) 0.00000 (1,11,2) -244.698 (1,12,1) 0.00000 (2,11,1) -750.559
(1,11,2): (1,10,2) 0.959876 (1,11,1) 244.698 (1,11,3) -171.622 (1,12,2) 0.842032 (2,11,2) -84.8773
(1,11,3): (1,10,3) 2.50767 (1,11,2) 171.622 (1,11,4) -167.247 (1,12,3) -0.210621 (2,11,3) -16.6727
(1,11,4): (1,10,4) 3.42382 (1,11,3) 167.247 (1,11,5) -170.143 (1,12,4) -1.24537 (2,11,4) -9.28246
(1,11,5): (1,10,5) 3.96777 (1,11,4) 170.143 (1,11,6) -173.823 (1,12,5) -2.04490 (2,11,5) -8.24303
(1,11,6): (1,10,6) 4.30912 (1,11,5) 173.823 (1,11,7) -177.545 (1,12,6) -2.63216 (2,11,6) -7.95407
(1,11,7): (1,10,7) 4.53162 (1,11,6) 177.545 (1,11,8) -181.216 (1,12,7) -3.05592 (2,11,7) -7.80482
(1,11,8): (1,10,8) 4.67881 (1,11,7) 181.216 (1,11,9) -184.827 (1,12,8) -3.35820 (2,11,8) -7.71040
(1,11,9): (1,10,9) 4.77476 (1,11,8) 184.827 (1,11,10) -188.381 (1,12,9) -3.57072 (2,11,9) -7.64937
(1,11,10): (1,10,10) 4.83338 (1,11,9) 188.381 (1,11,11) -191.886 (1,12,10) -3.71639 (2,11,10) -7.61214
(1,11,11): (1,10,11) 4.86287 (1,11,10) 191.886 (1,11,12) -195.344 (1,12,11) -3.81160 (2,11,11) -7.59334
(1,11,12): (1,10,12) 4.86819 (1,11,11) 195.344 (1,11,13) -198.754 (1,12,12) -3.86829 (2,11,12) -7.58978
(1,11,13): (1,10,13) 4.85236 (1,11,12) 198.754 (1,11,14) -202.111 (1,12,13) -3.89565 (2,11,13) -7.59950
(1,11,14): (1,10,14) 4.81738 (1,11,13) 202.111 (1,11,15) -205.406 (1,12,14) -3.90158 (2,11,14) -7.62119
(1,11,15): (1,10,15) 4.76488 (1,11,14) 205.406 (1,11,16) -208.623 (1,12,15) -3.89397 (2,11,15) -7.65380
(1,11,16): (1,10,16) 4.69677 (1,11,15) 208.623 (1,11,17) -211.742 (1,12,16) -3.88190 (2,11,16) -7.69607
(1,11,17): (1,10,17) 4.61610 (1,11,16) 211.742 (1,11,18) -214.735 (1,12,17) -3.87706 (2,11,17) -7.74596
(1,11,18): (1,10,18) 4.52848 (1,11,17) 214.735 (1,11,19) -217.569 (1,12,18) -3.89519 (2,11,18) -7.79970
(1,11,19): (1,10,19) 4.44450 (1,11,18) 217.569 (1,11,20) -220.206 (1,12,19) -3.95738 (2,11,19) -7.84947
(1,11,20): (1,10,20) 4.38440 (1,11,19) 220.206 (1,11,21) -222.627 (1,12,20) -4.09035 (2,11,20) -7.87339
(1,11,21): (1,10,21) 4.38758 (1,11,20) 222.627 (1,11,22) -224.930 (1,12,21) -4.32298 (2,11,21) -7.76146
(1,11,22): (1,10,22) 4.53238 (1,11,21) 224.930 (1,11,23) -228.159 (1,12,22) -4.66977 (2,11,22) -6.63401
(1,11,23): (1,10,23) 4.95557 (1,11,22) 228.159 (1,11,24) -241.831 (1,12,23) -5.05526 (2,11,23) 3.77217
(1,11,24): (1,10,24) 5.50712 (1,11,23) 241.831 (1,11,25) -356.575 (1,12,24) -4.87796 (2,11,24) 104.115
(1,11,25): (1,10,25) 0.00000 (1,11,24) 356.575 (1,12,25) 0.00000 (2,11,25) 1088.50
(1,12,1): (1,11,1) 0.00000 (1,12,2) -243.856 (1,13,1) 0.00000 (2,12,1) -734.491
(1,12,2): (1,11,2) -0.842032 (1,12,1) 243.856 (1,12,3) -172.675 (1,13,2) 1.54463 (2,12,2) -81.8833
(1,12,3): (1,11,3) 0.210621 (1,12,2) 172.675 (1,12,4) -168.282 (1,13,3) 1.23343 (2,12,3) -15.8376
(1,12,4): (1,11,4) 1.24537 (1,12,3) 168.282 (1,12,5) -170.942 (1,13,4) 0.525695 (2,12,4) -9.11030
(1,12,5): (1,11,5) 2.04490 (1,12,4) 170.942 (1,12,6) -174.410 (1,13,5) -0.178251 (2,12,5) -8.39907
(1,12,6): (1,11,6) 2.63216 (1,12,5) 174.410 (1,12,7) -177.969 (1,13,6) -0.765233 (2,12,6) -8.30754
(1,12,7): (1,11,7) 3.05592 (1,12,6) 177.969 (1,12,8) -181.519 (1,13,7) -1.22100 (2,12,7) -8.28551
(1,12,8): (1,11,8) 3.35820 (1,12,7) 181.519 (1,12,9) -185.039 (1,13,8) -1.56292 (2,12,8) -8.27483
(1,12,9): (1,11,9) 3.57072 (1,12,8) 185.039 (1,12,10) -188.527 (1,13,9) -1.81465 (2,12,9) -8.26824
(1,12,10): (1,11,10) 3.71639 (1,12,9) 188.527 (1,12,11) -191.981 (1,13,10) -1.99780 (2,12,10) -8.26421
(1,12,11): (1,11,11) 3.81160 (1,12,10) 191.981 (1,12,12) -195.401 (1,13,11) -2.13010 (2,12,11) -8.26209
(1,12,12): (1,11,12) 3.86829 (1,12,11) 195.401 (1,12,13) -198.782 (1,13,12) -2.22593 (2,12,12) -8.26155
(1,12,13): (1,11,13) 3.89565 (1,12,12) 198.782 (1,12,14) -202.117 (1,13,13) -2.29748 (2,12,13) -8.26236
(1,12,14): (1,11,14) 3.90158 (1,12,13) 202.117 (1,12,15) -205.398 (1,13,14) -2.35615 (2,12,14) -8.26437
(1,12,15): (1,11,15) 3.89397 (1,12,14) 205.398 (1,12,16) -208.611 (1,13,15) -2.41386 (2,12,15) -8.26745
(1,12,16): (1,11,16) 3.88190 (1,12,15) 208.611 (1,12,17) -211.737 (1,13,16) -2.48442 (2,12,16) -8.27144
(1,12,17): (1,11,17) 3.87706 (1,12,16) 211.737 (1,12,18) -214.753 (1,13,17) -2.58492 (2,12,17) -8.27610
(1,12,18): (1,11,18) 3.89519 (1,12,17) 214.753 (1,12,19) -217.631 (1,13,18) -2.73664 (2,12,18) -8.28090
(1,12,19): (1,11,19) 3.95738 (1,12,18) 217.631 (1,12,20) -220.339 (1,13,19) -2.96473 (2,12,19) -8.28421
(1,12,20): (1,11,20) 4.09035 (1,12,19) 220.339 (1,12,21) -222.860 (1,13,20) -3.29370 (2,12,20) -8.27635
(1,12,21): (1,11,21) 4.32298 (1,12,20) 222.860 (1,12,22) -225.277 (1,13,21) -3.73207 (2,12,21) -8.17361
(1,12,22): (1,11,22) 4.66977 (1,12,21) 225.277 (1,12,23) -228.544 (1,13,22) -4.23029 (2,12,22) -7.17219
(1,12,23): (1,11,23) 5.05526 (1,12,22) 228.544 (1,12,24) -241.654 (1,13,23) -4.57269 (2,12,23) 2.62710
(1,12,24): (1,11,24) 4.87796 (1,12,23) 241.654 (1,12,25) -351.697 (1,13,24) -4.06056 (2,12,24) 99.2259
(1,12,25): (1,11,25) 0.00000 (1,12,24) 351.697 (1,13,25) 0.00000 (2,12,25) 1053.66
(1,13,1): (1,12,1) 0.00000 (1,13,2) -242.311 (1,14,1) 0.00000 (2,13,1) -724.646
(1,13,2): (1,12,2) -1.54463 (1,13,1) 242.311 (1,13,3) -172.986 (1,14,2) 2.94696 (2,13,2) -80.7272
(1,13,3): (1,12,3) -1.23343 (1,13,2) 172.986 (1,13,4) -168.989 (1,14,3) 2.95457 (2,13,3) -15.7182
(1,13,4): (1,12,4) -0.525695 (1,13,3) 168.989 (1,13,5) -171.646 (1,14,4) 2.32046 (2,13,4) -9.13779
(1,13,5): (1,12,5) 0.178251 (1,13,4) 171.646 (1,13,6) -174.997 (1,14,5) 1.63367 (2,13,5) -8.46130
(1,13,6): (1,12,6) 0.765233 (1,13,5) 174.997 (1,13,7) -178.425 (1,14,6) 1.04814 (2,13,6) -8.38520
(1,13,7): (1,12,7) 1.22100 (1,13,6) 178.425 (1,13,8) -181.861 (1,14,7) 0.586776 (2,13,7) -8.37222
(1,13,8): (1,12,8) 1.56292 (1,13,7) 181.861 (1,13,9) -185.291 (1,14,8) 0.234481 (2,13,8) -8.36713
(1,13,9): (1,12,9) 1.81465 (1,13,8) 185.291 (1,13,10) -188.710 (1,14,9) -3.159434E-02 (2,13,9) -8.36381
(1,13,10): (1,12,10) 1.99780 (1,13,9) 188.710 (1,13,11) -192.114 (1,14,10) -0.232944 (2,13,10) -8.36132
(1,13,11): (1,12,11) 2.13010 (1,13,10) 192.114 (1,13,12) -195.497 (1,14,11) -0.387813 (2,13,11) -8.35937
(1,13,12): (1,12,12) 2.22593 (1,13,11) 195.497 (1,13,13) -198.853 (1,14,12) -0.511655 (2,13,12) -8.35775
(1,13,13): (1,12,13) 2.29748 (1,13,12) 198.853 (1,13,14) -202.176 (1,14,13) -0.618290 (2,13,13) -8.35629
(1,13,14): (1,12,14) 2.35615 (1,13,13) 202.176 (1,13,15) -205.456 (1,14,14) -0.721246 (2,13,14) -8.35482
(1,13,15): (1,12,15) 2.41386 (1,13,14) 205.456 (1,13,16) -208.682 (1,14,15) -0.835184 (2,13,15) -8.35315
(1,13,16): (1,12,16) 2.48442 (1,13,15) 208.682 (1,13,17) -211.838 (1,14,16) -0.977401 (2,13,16) -8.35105
(1,13,17): (1,12,17) 2.58492 (1,13,16) 211.838 (1,13,18) -214.905 (1,14,17) -1.16944 (2,13,17) -8.34820
(1,13,18): (1,12,18) 2.73664 (1,13,17) 214.905 (1,13,19) -217.859 (1,14,18) -1.43854 (2,13,18) -8.34407
(1,13,19): (1,12,19) 2.96473 (1,13,18) 217.859 (1,13,20) -220.668 (1,14,19) -1.81826 (2,13,19) -8.33716
(1,13,20): (1,12,20) 3.29370 (1,13,19) 220.668 (1,13,21) -223.298 (1,14,20) -2.34569 (2,13,20) -8.31832
(1,13,21): (1,12,21) 3.73207 (1,13,20) 223.298 (1,13,22) -225.775 (1,14,21) -3.04825 (2,13,21) -8.20667
(1,13,22): (1,12,22) 4.23029 (1,13,21) 225.775 (1,13,23) -228.887 (1,14,22) -3.89974 (2,13,22) -7.21907
(1,13,23): (1,12,23) 4.57269 (1,13,22) 228.887 (1,13,24) -241.142 (1,14,23) -4.68353 (2,13,23) 2.36598
(1,13,24): (1,12,24) 4.06056 (1,13,23) 241.142 (1,13,25) -347.637 (1,14,24) -4.53742 (2,13,24) 96.9717
(1,13,25): (1,12,25) 0.00000 (1,13,24) 347.637 (1,14,25) 0.00000 (2,13,25) 1033.50
(1,14,1): (1,13,1) 0.00000 (1,14,2) -239.364 (1,15,1) 0.00000 (2,14,1) -709.507
(1,14,2): (1,13,2) -2.94696 (1,14,1) 239.364 (1,14,3) -172.979 (1,15,2) 6.37362 (2,14,2) -79.8122
(1,14,3): (1,13,3) -2.95457 (1,14,2) 172.979 (1,14,4) -169.623 (1,15,3) 5.84797 (2,14,3) -16.2487
(1,14,4): (1,13,4) -2.32046 (1,14,3) 169.623 (1,14,5) -172.333 (1,15,4) 4.72714 (2,14,4) -9.69701
(1,14,5): (1,13,5) -1.63367 (1,14,4) 172.333 (1,14,6) -175.582 (1,15,5) 3.82994 (2,14,5) -8.94692
(1,14,6): (1,13,6) -1.04814 (1,14,5) 175.582 (1,14,7) -178.886 (1,15,6) 3.16681 (2,14,6) -8.81466
(1,14,7): (1,13,7) -0.586776 (1,14,6) 178.886 (1,14,8) -182.213 (1,15,7) 2.67545 (2,14,7) -8.76219
(1,14,8): (1,13,8) -0.234481 (1,14,7) 182.213 (1,14,9) -185.557 (1,15,8) 2.30655 (2,14,8) -8.72802
(1,14,9): (1,13,9) 3.159434E-02 (1,14,8) 185.557 (1,14,10) -188.911 (1,15,9) 2.02523 (2,14,9) -8.70231
(1,14,10): (1,13,10) 0.232944 (1,14,9) 188.911 (1,14,11) -192.268 (1,15,10) 1.80592 (2,14,10) -8.68181
(1,14,11): (1,13,11) 0.387813 (1,14,10) 192.268 (1,14,12) -195.620 (1,15,11) 1.62867 (2,14,11) -8.66458
(1,14,12): (1,13,12) 0.511655 (1,14,11) 195.620 (1,14,13) -198.960 (1,15,12) 1.47674 (2,14,12) -8.64907
(1,14,13): (1,13,13) 0.618290 (1,14,12) 198.960 (1,14,14) -202.279 (1,15,13) 1.33477 (2,14,13) -8.63383
(1,14,14): (1,13,14) 0.721246 (1,14,13) 202.279 (1,14,15) -205.570 (1,15,14) 1.18715 (2,14,14) -8.61732
(1,14,15): (1,13,15) 0.835184 (1,14,14) 205.570 (1,14,16) -208.824 (1,15,15) 1.01644 (2,14,15) -8.59782
(1,14,16): (1,13,16) 0.977401 (1,14,15) 208.824 (1,14,17) -212.030 (1,15,16) 0.801552 (2,14,16) -8.57317
(1,14,17): (1,13,17) 1.16944 (1,14,16) 212.030 (1,14,18) -215.174 (1,15,17) 0.515460 (2,14,17) -8.54055
(1,14,18): (1,13,18) 1.43854 (1,14,17) 215.174 (1,14,19) -218.239 (1,15,18) 0.122039 (2,14,18) -8.49594
(1,14,19): (1,13,19) 1.81826 (1,14,18) 218.239 (1,14,20) -221.196 (1,15,19) -0.428640 (2,14,19) -8.43261
(1,14,20): (1,13,20) 2.34569 (1,14,19) 221.196 (1,14,21) -224.000 (1,15,20) -1.20788 (2,14,20) -8.33298
(1,14,21): (1,13,21) 3.04825 (1,14,20) 224.000 (1,14,22) -226.627 (1,15,21) -2.31982 (2,14,21) -8.10234
(1,14,22): (1,13,22) 3.89974 (1,14,21) 226.627 (1,14,23) -229.670 (1,15,22) -3.90664 (2,14,22) -6.94931
(1,14,23): (1,13,23) 4.68353 (1,14,22) 229.670 (1,14,24) -240.996 (1,15,23) -6.03702 (2,14,23) 2.67874
(1,14,24): (1,13,24) 4.53742 (1,14,23) 240.996 (1,14,25) -343.099 (1,15,24) -7.66672 (2,14,24) 95.2328
(1,14,25): (1,13,25) 0.00000 (1,14,24) 343.099 (1,15,25) 0.00000 (2,14,25) 1010.30
(1,15,1): (1,14,1) 0.00000 (1,15,2) -232.991 (1,16,1) 0.00000 (2,15,1) -674.310
(1,15,2): (1,14,2) -6.37362 (1,15,1) 232.991 (1,15,3) -173.504 (1,16,2) 21.4844 (2,15,2) -84.5970
(1,15,3): (1,14,3) -5.84797 (1,15,2) 173.504 (1,15,4) -170.744 (1,16,3) 16.1780 (2,15,3) -23.0901
(1,15,4): (1,14,4) -4.72714 (1,15,3) 170.744 (1,15,5) -173.230 (1,16,4) 12.5772 (2,15,4) -15.3641
(1,15,5): (1,14,5) -3.82994 (1,15,4) 173.230 (1,15,6) -176.245 (1,16,5) 10.5687 (2,15,5) -13.7234
(1,15,6): (1,14,6) -3.16681 (1,15,5) 176.245 (1,15,7) -179.378 (1,16,6) 9.31398 (2,15,6) -13.0149
(1,15,7): (1,14,7) -2.67545 (1,15,6) 179.378 (1,15,8) -182.582 (1,16,7) 8.44412 (2,15,7) -12.5647
(1,15,8): (1,14,8) -2.30655 (1,15,7) 182.582 (1,15,9) -185.838 (1,16,8) 7.80102 (2,15,8) -12.2380
(1,15,9): (1,14,9) -2.02523 (1,15,8) 185.838 (1,15,10) -189.131 (1,16,9) 7.30512 (2,15,9) -11.9874
(1,15,10): (1,14,10) -1.80592 (1,15,9) 189.131 (1,15,11) -192.446 (1,16,10) 6.90772 (2,15,10) -11.7868
(1,15,11): (1,14,11) -1.62867 (1,15,10) 192.446 (1,15,12) -195.772 (1,16,11) 6.57332 (2,15,11) -11.6181
(1,15,12): (1,14,12) -1.47674 (1,15,11) 195.772 (1,15,13) -199.102 (1,16,12) 6.27218 (2,15,12) -11.4661
(1,15,13): (1,14,13) -1.33477 (1,15,12) 199.102 (1,15,14) -202.427 (1,16,13) 5.97622 (2,15,13) -11.3166
(1,15,14): (1,14,14) -1.18715 (1,15,13) 202.427 (1,15,15) -205.741 (1,16,14) 5.65603 (2,15,14) -11.1547
(1,15,15): (1,14,15) -1.01644 (1,15,14) 205.741 (1,15,16) -209.039 (1,16,15) 5.27793 (2,15,15) -10.9635
(1,15,16): (1,14,16) -0.801552 (1,15,15) 209.039 (1,15,17) -212.316 (1,16,16) 4.80050 (2,15,16) -10.7220
(1,15,17): (1,14,17) -0.515460 (1,15,16) 212.316 (1,15,18) -215.567 (1,16,17) 4.16975 (2,15,17) -10.4026
(1,15,18): (1,14,18) -0.122039 (1,15,17) 215.567 (1,15,19) -218.789 (1,16,18) 3.31127 (2,15,18) -9.96733
(1,15,19): (1,14,19) 0.428640 (1,15,18) 218.789 (1,15,20) -221.975 (1,16,19) 2.11556 (2,15,19) -9.35864
(1,15,20): (1,14,20) 1.20788 (1,15,19) 221.975 (1,15,21) -225.112 (1,16,20) 0.405429 (2,15,20) -8.47577
(1,15,21): (1,14,21) 2.31982 (1,15,20) 225.112 (1,15,22) -228.213 (1,16,21) -2.14645 (2,15,21) -7.07241
(1,15,22): (1,14,22) 3.90664 (1,15,21) 228.213 (1,15,23) -231.801 (1,16,22) -6.23689 (2,15,22) -4.08241
(1,15,23): (1,14,23) 6.03702 (1,15,22) 231.801 (1,15,24) -242.625 (1,16,23) -13.3745 (2,15,23) 8.16206
(1,15,24): (1,14,24) 7.66672 (1,15,23) 242.625 (1,15,25) -335.432 (1,16,24) -24.3711 (2,15,24) 99.5115
(1,15,25): (1,14,25) 0.00000 (1,15,24) 335.432 (1,16,25) 0.00000 (2,15,25) 961.898
(1,16,1): (1,15,1) 0.00000 (1,16,2) -211.506 (1,17,1) 0.00000 (2,16,1) -225.175
(1,16,2): (1,15,2) -21.4844 (1,16,1) 211.506 (1,16,3) -178.811 (1,17,2) 13.7096 (2,16,2) -34.9208
(1,16,3): (1,15,3) -16.1780 (1,16,2) 178.811 (1,16,4) -174.345 (1,17,3) 14.1490 (2,16,3) -12.4368
(1,16,4): (1,15,4) -12.5772 (1,16,3) 174.345 (1,16,5) -175.239 (1,17,4) 12.5610 (2,16,4) -9.08997
(1,16,5): (1,15,5) -10.5687 (1,16,4) 175.239 (1,16,6) -177.500 (1,17,5) 11.0524 (2,16,5) -8.22230
(1,16,6): (1,15,6) -9.31398 (1,16,5) 177.500 (1,16,7) -180.248 (1,17,6) 9.86927 (2,16,6) -7.80789
(1,16,7): (1,15,7) -8.44412 (1,16,6) 180.248 (1,16,8) -183.225 (1,17,7) 8.96011 (2,16,7) -7.53872
(1,16,8): (1,15,8) -7.80102 (1,16,7) 183.225 (1,16,9) -186.334 (1,17,8) 8.25310 (2,16,8) -7.34282
(1,16,9): (1,15,9) -7.30512 (1,16,8) 186.334 (1,16,10) -189.528 (1,17,9) 7.69160 (2,16,9) -7.19245
(1,16,10): (1,15,10) -6.90772 (1,16,9) 189.528 (1,16,11) -192.780 (1,17,10) 7.23183 (2,16,10) -7.07213
(1,16,11): (1,15,11) -6.57332 (1,16,10) 192.780 (1,16,12) -196.073 (1,17,11) 6.83753 (2,16,11) -6.97089
(1,16,12): (1,15,12) -6.27218 (1,16,11) 196.073 (1,16,13) -199.398 (1,17,12) 6.47606 (2,16,12) -6.87968
(1,16,13): (1,15,13) -5.97622 (1,16,12) 199.398 (1,16,14) -202.747 (1,17,13) 6.11533 (2,16,13) -6.78999
(1,16,14): (1,15,14) -5.65603 (1,16,13) 202.747 (1,16,15) -206.119 (1,17,14) 5.72097 (2,16,14) -6.69288
(1,16,15): (1,15,15) -5.27793 (1,16,14) 206.119 (1,16,16) -209.516 (1,17,15) 5.25338 (2,16,15) -6.57815
(1,16,16): (1,15,16) -4.80050 (1,16,15) 209.516 (1,16,17) -212.946 (1,17,16) 4.66403 (2,16,16) -6.43321
(1,16,17): (1,15,17) -4.16975 (1,16,16) 212.946 (1,16,18) -216.426 (1,17,17) 3.89075 (2,16,17) -6.24160
(1,16,18): (1,15,18) -3.31127 (1,16,17) 216.426 (1,16,19) -219.985 (1,17,18) 2.85085 (2,16,18) -5.98044
(1,16,19): (1,15,19) -2.11556 (1,16,18) 219.985 (1,16,20) -223.685 (1,17,19) 1.43091 (2,16,19) -5.61535
(1,16,20): (1,15,20) -0.405429 (1,16,19) 223.685 (1,16,21) -227.664 (1,17,20) -0.528275 (2,16,20) -5.08701
(1,16,21): (1,15,21) 2.14645 (1,16,20) 227.664 (1,16,22) -232.304 (1,17,21) -3.24703 (2,16,21) -4.25991
(1,16,22): (1,15,22) 6.23689 (1,16,21) 232.304 (1,16,23) -238.938 (1,17,22) -6.97353 (2,16,22) -2.62885
(1,16,23): (1,15,23) 13.3745 (1,16,22) 238.938 (1,16,24) -253.622 (1,17,23) -11.6068 (2,16,23) 2.91585
(1,16,24): (1,15,24) 24.3711 (1,16,23) 253.622 (1,16,25) -311.061 (1,17,24) -14.4705 (2,16,24) 37.5387
(1,16,25): (1,15,25) 0.00000 (1,16,24) 311.061 (1,17,25) 0.00000 (2,16,25) 325.681
(1,17,1): (1,16,1) 0.00000 (1,17,2) -197.797 (1,18,1) 0.00000 (2,17,1) -171.083
(1,17,2): (1,16,2) -13.7096 (1,17,1) 197.797 (1,17,3) -178.371 (1,18,2) 7.11418 (2,17,2) -22.8299
(1,17,3): (1,16,3) -14.1490 (1,17,2) 178.371 (1,17,4) -175.933 (1,18,3) 9.00108 (2,17,3) -7.29041
(1,17,4): (1,16,4) -12.5610 (1,17,3) 175.933 (1,17,5) -176.747 (1,18,4) 8.95280 (2,17,4) -5.57728
(1,17,5): (1,16,5) -11.0524 (1,17,4) 176.747 (1,17,6) -178.683 (1,18,5) 8.33290 (2,17,5) -5.34467
(1,17,6): (1,16,6) -9.86927 (1,17,5) 178.683 (1,17,7) -181.157 (1,18,6) 7.62943 (2,17,6) -5.28671
(1,17,7): (1,16,7) -8.96011 (1,17,6) 181.157 (1,17,8) -183.932 (1,18,7) 6.99264 (2,17,7) -5.25740
(1,17,8): (1,16,8) -8.25310 (1,17,7) 183.932 (1,17,9) -186.896 (1,18,8) 6.45401 (2,17,8) -5.23717
(1,17,9): (1,16,9) -7.69160 (1,17,8) 186.896 (1,17,10) -189.988 (1,18,9) 6.00572 (2,17,9) -5.22180
(1,17,10): (1,16,10) -7.23183 (1,17,9) 189.988 (1,17,11) -193.174 (1,18,10) 5.62786 (2,17,10) -5.20953
(1,17,11): (1,16,11) -6.83753 (1,17,10) 193.174 (1,17,12) -196.435 (1,18,11) 5.29721 (2,17,11) -5.19920
(1,17,12): (1,16,12) -6.47606 (1,17,11) 196.435 (1,17,13) -199.758 (1,18,12) 4.98942 (2,17,12) -5.18990
(1,17,13): (1,16,13) -6.11533 (1,17,12) 199.758 (1,17,14) -203.141 (1,18,13) 4.67881 (2,17,13) -5.18075
(1,17,14): (1,16,14) -5.72097 (1,17,13) 203.141 (1,17,15) -206.586 (1,18,14) 4.33710 (2,17,14) -5.17083
(1,17,15): (1,16,15) -5.25338 (1,17,14) 206.586 (1,17,16) -210.105 (1,18,15) 3.93153 (2,17,15) -5.15911
(1,17,16): (1,16,16) -4.66403 (1,17,15) 210.105 (1,17,17) -213.720 (1,18,16) 3.42258 (2,17,16) -5.14430
(1,17,17): (1,16,17) -3.89075 (1,17,16) 213.720 (1,17,18) -217.466 (1,18,17) 2.76147 (2,17,17) -5.12469
(1,17,18): (1,16,18) -2.85085 (1,17,17) 217.466 (1,17,19) -221.405 (1,18,18) 1.88794 (2,17,18) -5.09792
(1,17,19): (1,16,19) -1.43091 (1,17,18) 221.405 (1,17,20) -225.644 (1,18,19) 0.730351 (2,17,19) -5.06018
(1,17,20): (1,16,20) 0.528275 (1,17,19) 225.644 (1,17,21) -230.383 (1,18,20) -0.786148 (2,17,20) -5.00327
(1,17,21): (1,16,21) 3.24703 (1,17,20) 230.383 (1,17,22) -236.030 (1,18,21) -2.70537 (2,17,21) -4.89441
(1,17,22): (1,16,22) 6.97353 (1,17,21) 236.030 (1,17,23) -243.572 (1,18,22) -4.92823 (2,17,22) -4.50403
(1,17,23): (1,16,23) 11.6068 (1,17,22) 243.572 (1,17,24) -256.486 (1,18,23) -6.88952 (2,17,23) -1.80323
(1,17,24): (1,16,24) 14.4705 (1,17,23) 256.486 (1,17,25) -296.591 (1,18,24) -6.75743 (2,17,24) 22.3921
(1,17,25): (1,16,25) 0.00000 (1,17,24) 296.591 (1,18,25) 0.00000 (2,17,25) 253.208
(1,18,1): (1,17,1) 0.00000 (1,18,2) -190.682 (1,19,1) 0.00000 (2,18,1) -158.388
(1,18,2): (1,17,2) -7.11418 (1,18,1) 190.682 (1,18,3) -176.484 (1,19,2) 3.58063 (2,18,2) -20.6645
(1,18,3): (1,17,3) -9.00108 (1,18,2) 176.484 (1,18,4) -175.981 (1,19,3) 5.13898 (2,18,3) -6.64106
(1,18,4): (1,17,4) -8.95280 (1,18,3) 175.981 (1,18,5) -177.367 (1,19,4) 5.54119 (2,18,4) -5.20227
(1,18,5): (1,17,5) -8.33290 (1,18,4) 177.367 (1,18,6) -179.387 (1,19,5) 5.40206 (2,18,5) -5.04972
(1,18,6): (1,17,6) -7.62943 (1,18,5) 179.387 (1,18,7) -181.794 (1,19,6) 5.06681 (2,18,6) -5.03060
(1,18,7): (1,17,7) -6.99264 (1,18,6) 181.794 (1,18,8) -184.471 (1,19,7) 4.69585 (2,18,7) -5.02624
(1,18,8): (1,17,8) -6.45401 (1,18,7) 184.471 (1,18,9) -187.344 (1,19,8) 4.35144 (2,18,8) -5.02402
(1,18,9): (1,17,9) -6.00572 (1,18,8) 187.344 (1,18,10) -190.366 (1,19,9) 4.05003 (2,18,9) -5.02244
(1,18,10): (1,17,10) -5.62786 (1,18,9) 190.366 (1,18,11) -193.505 (1,19,10) 3.78835 (2,18,10) -5.02119
(1,18,11): (1,17,11) -5.29721 (1,18,10) 193.505 (1,18,12) -196.743 (1,19,11) 3.55496 (2,18,11) -5.02013
(1,18,12): (1,17,12) -4.98942 (1,18,11) 196.743 (1,18,13) -200.069 (1,19,12) 3.33488 (2,18,12) -5.01919
(1,18,13): (1,17,13) -4.67881 (1,18,12) 200.069 (1,18,14) -203.483 (1,19,13) 3.11090 (2,18,13) -5.01825
(1,18,14): (1,17,14) -4.33710 (1,18,13) 203.483 (1,18,15) -206.992 (1,19,14) 2.86351 (2,18,14) -5.01724
(1,18,15): (1,17,15) -3.93153 (1,18,14) 206.992 (1,18,16) -210.614 (1,19,15) 2.57000 (2,18,15) -5.01604
(1,18,16): (1,17,16) -3.42258 (1,18,15) 210.614 (1,18,17) -214.381 (1,19,16) 2.20354 (2,18,16) -5.01453
(1,18,17): (1,17,17) -2.76147 (1,18,16) 214.381 (1,18,18) -218.339 (1,19,17) 1.73242 (2,18,17) -5.01252
(1,18,18): (1,17,18) -1.88794 (1,18,17) 218.339 (1,18,19) -222.562 (1,19,18) 1.12091 (2,18,18) -5.00975
(1,18,19): (1,17,19) -0.730351 (1,18,18) 222.562 (1,18,20) -227.161 (1,19,19) 0.334178 (2,18,19) -5.00566
(1,18,20): (1,17,20) 0.786148 (1,18,19) 227.161 (1,18,21) -232.302 (1,19,20) -0.646896 (2,18,20) -4.99767
(1,18,21): (1,17,21) 2.70537 (1,18,20) 232.302 (1,18,22) -238.253 (1,19,21) -1.78883 (2,18,21) -4.96566
(1,18,22): (1,17,22) 4.92823 (1,18,21) 238.253 (1,18,23) -245.533 (1,19,22) -2.92666 (2,18,22) -4.72186
(1,18,23): (1,17,23) 6.88952 (1,18,22) 245.533 (1,18,24) -256.353 (1,19,23) -3.62615 (2,18,23) -2.44271
(1,18,24): (1,17,24) 6.75743 (1,18,23) 256.353 (1,18,25) -289.833 (1,19,24) -3.03952 (2,18,24) 19.7619
(1,18,25): (1,17,25) 0.00000 (1,18,24) 289.833 (1,19,25) 0.00000 (2,18,25) 238.021
(1,19,1): (1,18,1) 0.00000 (1,19,2) -187.102 (1,20,1) 0.00000 (2,19,1) -154.237
(1,19,2): (1,18,2) -3.58063 (1,19,1) 187.102 (1,19,3) -174.926 (1,20,2) 1.51995 (2,19,2) -20.1151
(1,19,3): (1,18,3) -5.13898 (1,19,2) 174.926 (1,19,4) -175.579 (1,20,3) 2.32758 (2,19,3) -6.53562
(1,19,4): (1,18,4) -5.54119 (1,19,3) 175.579 (1,19,5) -177.506 (1,20,4) 2.62784 (2,19,4) -5.15920
(1,19,5): (1,18,5) -5.40206 (1,19,4) 177.506 (1,19,6) -179.722 (1,20,5) 2.63674 (2,19,5) -5.01911
(1,19,6): (1,18,6) -5.06681 (1,19,5) 179.722 (1,19,7) -182.164 (1,20,6) 2.51382 (2,19,6) -5.00453
(1,19,7): (1,18,7) -4.69585 (1,19,6) 182.164 (1,19,8) -184.815 (1,20,7) 2.34908 (2,19,7) -5.00281
(1,19,8): (1,18,8) -4.35144 (1,19,7) 184.815 (1,19,9) -187.645 (1,20,8) 2.18428 (2,19,8) -5.00245
(1,19,9): (1,18,9) -4.05003 (1,19,8) 187.645 (1,19,10) -190.627 (1,20,9) 2.03446 (2,19,9) -5.00227
(1,19,10): (1,18,10) -3.78835 (1,19,9) 190.627 (1,19,11) -193.738 (1,20,10) 1.90151 (2,19,10) -5.00214
(1,19,11): (1,18,11) -3.55496 (1,19,10) 193.738 (1,19,12) -196.963 (1,20,11) 1.78132 (2,19,11) -5.00204
(1,19,12): (1,18,12) -3.33488 (1,19,11) 196.963 (1,19,13) -200.293 (1,20,12) 1.66698 (2,19,12) -5.00194
(1,19,13): (1,18,13) -3.11090 (1,19,12) 200.293 (1,19,14) -203.730 (1,20,13) 1.55001 (2,19,13) -5.00184
(1,19,14): (1,18,14) -2.86351 (1,19,13) 203.730 (1,19,15) -207.285 (1,20,14) 1.42052 (2,19,14) -5.00174
(1,19,15): (1,18,15) -2.57000 (1,19,14) 207.285 (1,19,16) -210.981 (1,20,15) 1.26701 (2,19,15) -5.00162
(1,19,16): (1,18,16) -2.20354 (1,19,15) 210.981 (1,19,17) -214.852 (1,20,16) 1.07608 (2,19,16) -5.00146
(1,19,17): (1,18,17) -1.73242 (1,19,16) 214.852 (1,19,18) -218.951 (1,20,17) 0.832484 (2,19,17) -5.00126
(1,19,18): (1,18,18) -1.12091 (1,19,17) 218.951 (1,19,19) -223.349 (1,20,18) 0.520318 (2,19,18) -5.00095
(1,19,19): (1,18,19) -0.334178 (1,19,18) 223.349 (1,19,20) -228.142 (1,20,19) 0.127004 (2,19,19) -5.00032
(1,19,20): (1,18,20) 0.646896 (1,19,19) 228.142 (1,19,21) -233.444 (1,20,20) -0.346993 (2,19,20) -4.99746
(1,19,21): (1,18,21) 1.78883 (1,19,20) 233.444 (1,19,22) -239.391 (1,20,21) -0.868052 (2,19,21) -4.97401
(1,19,22): (1,18,22) 2.92666 (1,19,21) 239.391 (1,19,23) -246.232 (1,20,22) -1.33533 (2,19,22) -4.74995
(1,19,23): (1,18,23) 3.62615 (1,19,22) 246.232 (1,19,24) -255.767 (1,20,23) -1.54230 (2,19,23) -2.54932
(1,19,24): (1,18,24) 3.03952 (1,19,23) 255.767 (1,19,25) -286.794 (1,20,24) -1.18521 (2,19,24) 19.1726
(1,19,25): (1,18,25) 0.00000 (1,19,24) 286.794 (1,20,25) 0.00000 (2,19,25) 233.845
(1,20,1): (1,19,1) 0.00000 (1,20,2) -185.582 (2,20,1) -152.751
(1,20,2): (1,19,2) -1.51995 (1,20,1) 185.582 (1,20,3) -174.118 (2,20,2) -19.9435
(1,20,3): (1,19,3) -2.32758 (1,20,2) 174.118 (1,20,4) -175.279 (2,20,3) -6.51204
(1,20,4): (1,19,4) -2.62784 (1,20,3) 175.279 (1,20,5) -177.498 (2,20,4) -5.15337
(1,20,5): (1,19,5) -2.63674 (1,20,4) 177.498 (1,20,6) -179.845 (2,20,5) -5.01585
(1,20,6): (1,19,6) -2.51382 (1,20,5) 179.845 (1,20,7) -182.329 (2,20,6) -5.00189
(1,20,7): (1,19,7) -2.34908 (1,20,6) 182.329 (1,20,8) -184.980 (2,20,7) -5.00045
(1,20,8): (1,19,8) -2.18428 (1,20,7) 184.980 (1,20,9) -187.795 (2,20,8) -5.00029
(1,20,9): (1,19,9) -2.03446 (1,20,8) 187.795 (1,20,10) -190.760 (2,20,9) -5.00025
(1,20,10): (1,19,10) -1.90151 (1,20,9) 190.760 (1,20,11) -193.859 (2,20,10) -5.00024
(1,20,11): (1,19,11) -1.78132 (1,20,10) 193.859 (1,20,12) -197.077 (2,20,11) -5.00023
(1,20,12): (1,19,12) -1.66698 (1,20,11) 197.077 (1,20,13) -200.410 (2,20,12) -5.00022
(1,20,13): (1,19,13) -1.55001 (1,20,12) 200.410 (1,20,14) -203.860 (2,20,13) -5.00020
(1,20,14): (1,19,14) -1.42052 (1,20,13) 203.860 (1,20,15) -207.439 (2,20,14) -5.00019
(1,20,15): (1,19,15) -1.26701 (1,20,14) 207.439 (1,20,16) -211.172 (2,20,15) -5.00018
(1,20,16): (1,19,16) -1.07608 (1,20,15) 211.172 (1,20,17) -215.096 (2,20,16) -5.00016
(1,20,17): (1,19,17) -0.832484 (1,20,16) 215.096 (1,20,18) -219.263 (2,20,17) -5.00014
(1,20,18): (1,19,18) -0.520318 (1,20,17) 219.263 (1,20,19) -223.743 (2,20,18) -5.00008
(1,20,19): (1,19,19) -0.127004 (1,20,18) 223.743 (1,20,20) -228.616 (2,20,19) -4.99981
(1,20,20): (1,19,20) 0.346993 (1,20,19) 228.616 (1,20,21) -233.965 (2,20,20) -4.99748
(1,20,21): (1,19,21) 0.868052 (1,20,20) 233.965 (1,20,22) -239.858 (2,20,21) -4.97507
(1,20,22): (1,19,22) 1.33533 (1,20,21) 239.858 (1,20,23) -246.439 (2,20,22) -4.75426
(1,20,23): (1,19,23) 1.54230 (1,20,22) 246.439 (1,20,24) -255.410 (2,20,23) -2.57182
(1,20,24): (1,19,24) 1.18521 (1,20,23) 255.410 (1,20,25) -285.609 (2,20,24) 19.0136
(1,20,25): (1,19,25) 0.00000 (1,20,24) 285.609 (2,20,25) 232.549
(2,1,1): (1,1,1) 139.979 (2,1,2) -139.783 (2,2,1) -0.195520
(2,1,2): (1,1,2) 18.6458 (2,1,1) 139.783 (2,1,3) -157.668 (2,2,2) -0.761246
(2,1,3): (1,1,3) 6.38035 (2,1,2) 157.668 (2,1,4) -162.986 (2,2,3) -1.06191
(2,1,4): (1,1,4) 5.14014 (2,1,3) 162.986 (2,1,5) -167.016 (2,2,4) -1.11047
(2,1,5): (1,1,5) 5.01462 (2,1,4) 167.016 (2,1,6) -170.996 (2,2,5) -1.03439
(2,1,6): (1,1,6) 5.00187 (2,1,5) 170.996 (2,1,7) -175.074 (2,2,6) -0.924048
(2,1,7): (1,1,7) 5.00055 (2,1,6) 175.074 (2,1,8) -179.253 (2,2,7) -0.821622
(2,1,8): (1,1,8) 5.00040 (2,1,7) 179.253 (2,1,9) -183.514 (2,2,8) -0.739016
(2,1,9): (1,1,9) 5.00037 (2,1,8) 183.514 (2,1,10) -187.841 (2,2,9) -0.673855
(2,1,10): (1,1,10) 5.00036 (2,1,9) 187.841 (2,1,11) -192.222 (2,2,10) -0.618689
(2,1,11): (1,1,11) 5.00036 (2,1,10) 192.222 (2,1,12) -196.658 (2,2,11) -0.565174
(2,1,12): (1,1,12) 5.00034 (2,1,11) 196.658 (2,1,13) -201.153 (2,2,12) -0.505479
(2,1,13): (1,1,13) 5.00032 (2,1,12) 201.153 (2,1,14) -205.720 (2,2,13) -0.432395
[...]
    471     (1,19,21)             5.0000000     
    472     (1,19,22)             5.0000000     
    473     (1,19,23)             5.0000000     
    474     (1,19,24)             5.0000000     
    475     (1,19,25)             0.0000000     
    476     (1,20,1)              0.0000000     
    477     (1,20,2)              5.0000000     
    478     (1,20,3)              5.0000000     
    479     (1,20,4)              5.0000000     
    480     (1,20,5)              5.0000000     
    481     (1,20,6)              5.0000000     
    482     (1,20,7)              5.0000000     
    483     (1,20,8)              5.0000000     
    484     (1,20,9)              5.0000000     
    485     (1,20,10)             5.0000000     
    486     (1,20,11)             5.0000000     
    487     (1,20,12)             5.0000000     
    488     (1,20,13)             5.0000000     
    489     (1,20,14)             5.0000000     
    490     (1,20,15)             5.0000000     
    491     (1,20,16)             5.0000000     
    492     (1,20,17)             5.0000000     
    493     (1,20,18)             5.0000000     
    494     (1,20,19)             5.0000000     
    495     (1,20,20)             5.0000000     
    496     (1,20,21)             5.0000000     
    497     (1,20,22)             5.0000000     
    498     (1,20,23)             5.0000000     
    499     (1,20,24)             5.0000000     
    500     (1,20,25)             0.0000000     
 -----------------------------------------------




 CHD PACKAGE (CHD_0) FLOW RATES   PERIOD      3   STEP       10
 -----------------------------------------------
   NUMBER   CELLID                    RATE      
 -----------------------------------------------
     1      (1,1,1)               366.94895     
     2      (1,1,25)             -480.65621     
     3      (1,2,1)               368.73569     
     4      (1,2,25)             -482.97912     
     5      (1,3,1)               373.72220     
     6      (1,3,25)             -489.49927     
     7      (1,4,1)               388.35412     
     8      (1,4,25)             -508.68984     
     9      (1,5,1)               445.60787     
     10     (1,5,25)             -583.63362     
     11     (1,6,1)               117.76384     
     12     (1,6,25)             -154.58614     
     13     (1,7,1)               140.59806     
     14     (1,7,25)             -183.41952     
     15     (1,8,1)               149.53039     
     16     (1,8,25)             -192.83030     
     17     (1,9,1)               149.69757     
     18     (1,9,25)             -189.72010     
     19     (1,10,1)              138.92657     
     20     (1,10,25)            -171.63976     
     21     (1,11,1)              1107.7117     
     22     (1,11,25)            -1332.6212     
     23     (1,12,1)              1085.1001     
     24     (1,12,25)            -1298.6073     
     25     (1,13,1)              1070.5025     
     26     (1,13,25)            -1277.5935     
     27     (1,14,1)              1050.0026     
     28     (1,14,25)            -1252.2660     
     29     (1,15,1)              1004.8082     
     30     (1,15,25)            -1199.8231     
     31     (1,16,1)              486.69620     
     32     (1,16,25)            -586.72711     
     33     (1,17,1)              414.10915     
     34     (1,17,25)            -504.56906     
     35     (1,18,1)              393.76623     
     36     (1,18,25)            -483.15848     
     37     (1,19,1)              386.16412     
     38     (1,19,25)            -475.81420     
     39     (1,20,1)              383.28925     
     40     (1,20,25)            -473.20141     
 -----------------------------------------------



1
  HEAD IN LAYER   1 AT END OF TIME STEP  10 IN STRESS PERIOD    3
  ---------------------------------------------------------------------------

            1           2           3           4           5           6           7           8           9          10
           11          12          13          14          15          16          17          18          19          20
           21          22          23          24          25
 ............................................................................................................................................................................................................................................................................................................
   1    65.00       64.60       64.22       63.85       63.48       63.10       62.72       62.33       61.94       61.55    
        61.16       60.76       60.35       59.94       59.53       59.11       58.69       58.26       57.82       57.38    
        56.93       56.47       56.01       55.53       55.00    
   2    65.00       64.59       64.22       63.85       63.47       63.10       62.72       62.33       61.94       61.55    
        61.16       60.76       60.35       59.94       59.53       59.11       58.69       58.26       57.82       57.38    
        56.93       56.48       56.01       55.53       55.00    
   3    65.00       64.59       64.22       63.84       63.47       63.09       62.71       62.33       61.94       61.55    
        61.15       60.75       60.35       59.94       59.53       59.11       58.69       58.26       57.83       57.38    
        56.94       56.48       56.02       55.54       55.00    
   4    65.00       64.58       64.21       63.83       63.46       63.09       62.71       62.32       61.94       61.55    
        61.15       60.75       60.35       59.94       59.53       59.11       58.69       58.26       57.83       57.39    
        56.95       56.49       56.03       55.55       55.00    
   5    65.00       64.57       64.19       63.82       63.45       63.08       62.70       62.32       61.93       61.54    
        61.15       60.75       60.35       59.94       59.53       59.11       58.69       58.26       57.83       57.40    
        56.96       56.51       56.05       55.57       55.00    
   6    65.00       64.51       64.16       63.80       63.44       63.07       62.70       62.32       61.93       61.55    
        61.15       60.75       60.35       59.94       59.53       59.12       58.70       58.28       57.85       57.42    
        56.99       56.55       56.11       55.66       55.00    
   7    65.00       64.47       64.12       63.78       63.42       63.06       62.69       62.31       61.92       61.53    
        61.14       60.74       60.34       59.94       59.53       59.11       58.70       58.28       57.85       57.43    
        57.00       56.58       56.16       55.72       55.00    
   8    65.00       64.44       64.10       63.76       63.40       63.04       62.67       62.29       61.91       61.52    
        61.13       60.73       60.33       59.92       59.52       59.10       58.69       58.27       57.85       57.43    
        57.01       56.59       56.17       55.74       55.00    
   9    65.00       64.44       64.09       63.74       63.38       63.02       62.65       62.27       61.88       61.50    
        61.10       60.71       60.31       59.90       59.50       59.09       58.67       58.26       57.84       57.42    
        57.00       56.58       56.17       55.73       55.00    
  10    65.00       64.45       64.08       63.73       63.36       63.00       62.62       62.24       61.86       61.47    
        61.08       60.68       60.28       59.88       59.47       59.06       58.65       58.24       57.82       57.40    
        56.98       56.56       56.14       55.70       55.00    
  11    65.00       64.45       64.08       63.71       63.34       62.97       62.60       62.21       61.83       61.44    
        61.05       60.65       60.25       59.85       59.45       59.04       58.63       58.21       57.79       57.37    
        56.95       56.53       56.11       55.66       55.00    
  12    65.00       64.46       64.08       63.71       63.34       62.97       62.59       62.21       61.83       61.44    
        61.05       60.65       60.25       59.85       59.44       59.03       58.62       58.21       57.79       57.37    
        56.95       56.53       56.10       55.65       55.00    
  13    65.00       64.46       64.08       63.71       63.34       62.97       62.59       62.21       61.83       61.44    
        61.04       60.65       60.25       59.85       59.44       59.03       58.62       58.20       57.79       57.37    
        56.94       56.52       56.09       55.64       55.00    
  14    65.00       64.47       64.09       63.72       63.35       62.97       62.59       62.21       61.83       61.44    
        61.04       60.65       60.25       59.84       59.44       59.03       58.62       58.20       57.78       57.36    
        56.94       56.51       56.08       55.63       55.00    
  15    65.00       64.48       64.10       63.73       63.36       62.98       62.60       62.22       61.83       61.44    
        61.05       60.65       60.25       59.85       59.44       59.03       58.62       58.20       57.78       57.36    
        56.93       56.50       56.07       55.62       55.00    
  16    65.00       64.53       64.13       63.75       63.37       62.99       62.61       62.23       61.84       61.45    
        61.05       60.66       60.26       59.85       59.44       59.03       58.62       58.20       57.78       57.35    
        56.92       56.49       56.04       55.57       55.00    
  17    65.00       64.56       64.16       63.77       63.39       63.01       62.62       62.24       61.85       61.46    
        61.06       60.66       60.26       59.86       59.45       59.04       58.62       58.20       57.78       57.35    
        56.91       56.47       56.02       55.54       55.00    
  18    65.00       64.57       64.18       63.79       63.40       63.02       62.63       62.24       61.85       61.46    
        61.07       60.67       60.27       59.86       59.45       59.04       58.62       58.20       57.78       57.34    
        56.91       56.46       56.00       55.53       55.00    
  19    65.00       64.58       64.19       63.80       63.41       63.03       62.64       62.25       61.86       61.47    
        61.07       60.67       60.27       59.86       59.45       59.04       58.62       58.20       57.77       57.34    
        56.90       56.45       55.99       55.52       55.00    
  20    65.00       64.58       64.19       63.80       63.42       63.03       62.64       62.25       61.86       61.47    
        61.07       60.67       60.27       59.86       59.45       59.04       58.62       58.20       57.77       57.34    
        56.90       56.45       55.99       55.52       55.00    
1
  HEAD IN LAYER   2 AT END OF TIME STEP  10 IN STRESS PERIOD    3
  ---------------------------------------------------------------------------

            1           2           3           4           5           6           7           8           9          10
           11          12          13          14          15          16          17          18          19          20
           21          22          23          24          25
 ............................................................................................................................................................................................................................................................................................................
   1    64.92       64.59       64.22       63.85       63.47       63.10       62.72       62.33       61.94       61.55    
        61.16       60.76       60.35       59.94       59.53       59.11       58.68       58.26       57.82       57.38    
        56.93       56.47       56.01       55.54       55.11    
   2    64.92       64.59       64.22       63.85       63.47       63.09       62.71       62.33       61.94       61.55    
        61.15       60.75       60.35       59.94       59.53       59.11       58.69       58.26       57.82       57.38    
        56.93       56.47       56.01       55.54       55.11    
   3    64.92       64.58       64.21       63.84       63.47       63.09       62.71       62.33       61.94       61.55    
        61.15       60.75       60.35       59.94       59.53       59.11       58.69       58.26       57.82       57.38    
        56.94       56.48       56.02       55.55       55.11    
   4    64.91       64.57       64.20       63.83       63.46       63.08       62.71       62.32       61.94       61.55    
        61.15       60.75       60.35       59.94       59.53       59.11       58.69       58.26       57.83       57.39    
        56.95       56.49       56.03       55.56       55.12    
   5    64.89       64.55       64.18       63.82       63.45       63.08       62.70       62.32       61.93       61.54    
        61.15       60.75       60.35       59.94       59.53       59.11       58.69       58.26       57.83       57.40    
        56.96       56.51       56.06       55.59       55.15    
   6    64.74       64.47       64.14       63.79       63.43       63.06       62.69       62.31       61.92       61.53    
        61.14       60.74       60.34       59.93       59.52       59.11       58.69       58.27       57.84       57.41    
        56.98       56.54       56.11       55.69       55.33    
   7    64.69       64.42       64.11       63.77       63.41       63.05       62.67       62.29       61.91       61.52    
        61.13       60.73       60.33       59.93       59.52       59.10       58.69       58.27       57.84       57.42    
        56.99       56.57       56.15       55.75       55.41    
   8    64.67       64.40       64.08       63.74       63.39       63.03       62.65       62.28       61.89       61.51    
        61.11       60.72       60.32       59.91       59.50       59.09       58.68       58.26       57.84       57.42    
        57.00       56.58       56.17       55.77       55.43    
   9    64.67       64.39       64.07       63.73       63.37       63.01       62.63       62.26       61.87       61.48    
        61.09       60.70       60.30       59.89       59.49       59.07       58.66       58.25       57.83       57.41    
        56.99       56.57       56.16       55.76       55.42    
  10    64.69       64.41       64.07       63.72       63.35       62.98       62.61       62.23       61.85       61.46    
        61.07       60.67       60.27       59.87       59.46       59.05       58.64       58.23       57.81       57.39    
        56.97       56.55       56.13       55.73       55.38    
  11    64.75       64.43       64.07       63.71       63.34       62.97       62.59       62.21       61.83       61.44    
        61.05       60.65       60.25       59.85       59.45       59.04       58.62       58.21       57.79       57.37    
        56.95       56.53       56.11       55.69       55.30    
  12    64.76       64.43       64.07       63.71       63.34       62.97       62.59       62.21       61.83       61.44    
        61.04       60.65       60.25       59.85       59.44       59.03       58.62       58.21       57.79       57.37    
        56.95       56.52       56.10       55.68       55.29    
  13    64.76       64.44       64.08       63.71       63.34       62.97       62.59       62.21       61.82       61.43    
        61.04       60.65       60.25       59.84       59.44       59.03       58.62       58.20       57.78       57.36    
        56.94       56.52       56.09       55.67       55.29    
  14    64.76       64.44       64.09       63.72       63.35       62.97       62.59       62.21       61.82       61.44    
        61.04       60.65       60.25       59.84       59.44       59.03       58.62       58.20       57.78       57.36    
        56.94       56.51       56.08       55.66       55.28    
  15    64.78       64.46       64.10       63.73       63.35       62.98       62.60       62.21       61.83       61.44    
        61.04       60.65       60.25       59.84       59.44       59.03       58.62       58.20       57.78       57.36    
        56.93       56.50       56.07       55.65       55.27    
  16    64.87       64.51       64.13       63.75       63.37       62.99       62.61       62.22       61.84       61.44    
        61.05       60.65       60.25       59.85       59.44       59.03       58.62       58.20       57.78       57.35    
        56.92       56.49       56.04       55.59       55.15    
  17    64.90       64.54       64.16       63.77       63.39       63.01       62.62       62.23       61.85       61.45    
        61.06       60.66       60.26       59.86       59.45       59.04       58.62       58.20       57.78       57.35    
        56.91       56.47       56.02       55.56       55.12    
  18    64.91       64.56       64.17       63.79       63.40       63.02       62.63       62.24       61.85       61.46    
        61.07       60.67       60.26       59.86       59.45       59.04       58.62       58.20       57.77       57.34    
        56.90       56.46       56.00       55.54       55.11    
  19    64.91       64.57       64.18       63.80       63.41       63.03       62.64       62.25       61.86       61.47    
        61.07       60.67       60.27       59.86       59.45       59.04       58.62       58.20       57.77       57.34    
        56.90       56.45       55.99       55.53       55.11    
  20    64.91       64.57       64.19       63.80       63.42       63.03       62.64       62.25       61.86       61.47    
        61.07       60.67       60.27       59.86       59.45       59.04       58.62       58.20       57.77       57.34    
        56.90       56.45       55.99       55.53       55.11    

 HEAD WILL BE SAVED ON UNIT 1016 AT END OF TIME STEP   10, STRESS PERIOD    3


  VOLUME BUDGET FOR ENTIRE MODEL AT END OF TIME STEP   10, STRESS PERIOD   3
  ---------------------------------------------------------------------------------------------------

     CUMULATIVE VOLUME      L**3       RATES FOR THIS TIME STEP      L**3/T          PACKAGE NAME    
     ------------------                 ------------------------                     ----------------

           IN:                                      IN:
           ---                                      ---
              STO-SS =        2926.1732                STO-SS =       2.3109E-05     STORAGE                          
                RCHA =      165600.0000                  RCHA =        2300.0000     RCHA_0                           
                 CHD =      374765.6415                   CHD =       10022.0353     CHD_0                            

            TOTAL IN =      543291.8147              TOTAL IN =       12322.0353

          OUT:                                     OUT:
          ----                                     ----
              STO-SS =        1950.5619                STO-SS =           0.0000     STORAGE                          
                RCHA =           0.0000                  RCHA =           0.0000     RCHA_0                           
                 CHD =      541341.2528                   CHD =       12322.0353     CHD_0                            

           TOTAL OUT =      543291.8147             TOTAL OUT =       12322.0353

            IN - OUT =      -2.7447E-06              IN - OUT =       1.6150E-05

 PERCENT DISCREPANCY =          -0.00     PERCENT DISCREPANCY =           0.00




         TIME SUMMARY AT END OF TIME STEP   10 IN STRESS PERIOD    3
                          TIME STEP LENGTH =    3.00000    
                        STRESS PERIOD TIME =    30.0000    
                     TOTAL SIMULATION TIME =    41.0000    

end timestep

