                                   MODFLOW 6
                U.S. GEOLOGICAL SURVEY MODULAR HYDROLOGIC MODEL
                            VERSION 6.6.2 05/12/2025

   MODFLOW 6 compiled May 24 2025 11:41:46 with Intel(R) Fortran Intel(R) 64
   Compiler Classic for applications running on Intel(R) 64, Version 2021.7.0
                             Build 20220726_000000

This software has been approved for release by the U.S. Geological 
Survey (USGS). Although the software has been subjected to rigorous 
review, the USGS reserves the right to update the software as needed 
pursuant to further analysis and review. No warranty, expressed or 
implied, is made by the USGS or the U.S. Government as to the 
functionality of the software and related material nor shall the 
fact of release constitute any such warranty. Furthermore, the 
software is released on condition that neither the USGS nor the U.S. 
Government shall be held liable for any damages resulting from its 
authorized or unauthorized use. Also refer to the USGS Water 
Resources Software User Rights Notice for complete use, copyright, 
and distribution information.


As a work of the United States Government, this USGS product is 
in the public domain within the United States. You can copy, 
modify, distribute, and perform the work, even for commercial 
purposes, all without asking permission. Additionally, USGS 
waives copyright and related rights in the work worldwide 
through CC0 1.0 Universal Public Domain Dedication 
(https://creativecommons.org/publicdomain/zero/1.0/).

The following GNU Lesser General Public License (LGPL) libraries
are used in this USGS product:

    SPARSKIT version 2.0
      ilut, luson, and qsplit 
      (https://www-users.cse.umn.edu/~saad/software/SPARSKIT/)

    RCM - Reverse Cuthill McKee Ordering
      (https://people.math.sc.edu/Burkardt/f_src/rcm/rcm.html)

    BLAS - Basic Linear Algebra Subprograms Level 1
      (https://people.math.sc.edu/Burkardt/f_src/blas1_d/blas1_d.html)

    SPARSEKIT - Sparse Matrix Utility Package
      amux, dperm, dvperm, rperm, and cperm
      (https://people.sc.fsu.edu/~jburkardt/f77_src/sparsekit/sparsekit.html)

The following BSD-3 License libraries are used in this USGS product:

    Modern Fortran DAG Library
      Copyright (c) 2018, Jacob Williams
      All rights reserved.
      (https://github.com/jacobwilliams/daglib)

MODFLOW 6 compiler options: -Ilinux/obj_mf6 -O2 -no-heap-arrays -fpe0
-traceback -Qdiag-disable:7416 -Qdiag-disable:7025 -Qdiag-disable:5268 -fpp
-module linux/mod_mf6/ -c -o linux/obj_mf6/compilerversion.o

System command used to initiate simulation:
/home/danilopezmella/flopy_expert/bin/mf6

MODFLOW was compiled using uniform precision.

Real Variables
  KIND: 8
  TINY (smallest non-zero value):    2.225074-308
  HUGE (largest value):    1.797693+308
  PRECISION: 15
  SIZE IN BITS: 64

Integer Variables
  KIND: 4
  HUGE (largest value): 2147483647
  SIZE IN BITS: 32

Long Integer Variables
  KIND: 8
  HUGE (largest value): 9223372036854775807
  SIZE IN BITS: 64

Logical Variables
  KIND: 4
  SIZE IN BITS: 32
 

 OPENED mfsim.nam
 FILE TYPE:NAM6               UNIT 1001   STATUS:OLD                 
 FORMAT:FORMATTED              ACCESS:SEQUENTIAL          
 ACTION:READ                

 # File generated by Flopy version 3.9.3 on 08/07/2025 at 09:01:46.

 OPENED simlist_demo.tdis
 FILE TYPE:TDIS6              UNIT 1002   STATUS:OLD                 
 FORMAT:FORMATTED              ACCESS:SEQUENTIAL          
 ACTION:READ                

 # File generated by Flopy version 3.9.3 on 08/07/2025 at 09:01:46.

 OPENED flow_model.nam
 FILE TYPE:GWF6               UNIT 1003   STATUS:OLD                 
 FORMAT:FORMATTED              ACCESS:SEQUENTIAL          
 ACTION:READ                

 # File generated by Flopy version 3.9.3 on 08/07/2025 at 09:01:46.

 OPENED flow_model.dis
 FILE TYPE:DIS6               UNIT 1004   STATUS:OLD                 
 FORMAT:FORMATTED              ACCESS:SEQUENTIAL          
 ACTION:READ                

 # File generated by Flopy version 3.9.3 on 08/07/2025 at 09:01:46.

 OPENED flow_model.npf
 FILE TYPE:NPF6               UNIT 1005   STATUS:OLD                 
 FORMAT:FORMATTED              ACCESS:SEQUENTIAL          
 ACTION:READ                

 # File generated by Flopy version 3.9.3 on 08/07/2025 at 09:01:46.

 OPENED flow_model.sto
 FILE TYPE:STO6               UNIT 1006   STATUS:OLD                 
 FORMAT:FORMATTED              ACCESS:SEQUENTIAL          
 ACTION:READ                

 # File generated by Flopy version 3.9.3 on 08/07/2025 at 09:01:46.

 OPENED flow_model.ic
 FILE TYPE:IC6                UNIT 1007   STATUS:OLD                 
 FORMAT:FORMATTED              ACCESS:SEQUENTIAL          
 ACTION:READ                

 # File generated by Flopy version 3.9.3 on 08/07/2025 at 09:01:46.

 OPENED flow_model.oc
 FILE TYPE:OC6       UNIT 1008   STATUS:OLD                 
 FORMAT:FORMATTED              ACCESS:SEQUENTIAL          
 ACTION:READ                


 OPENED flow_model.rcha
 FILE TYPE:RCH6               UNIT 1010   STATUS:OLD                 
 FORMAT:FORMATTED              ACCESS:SEQUENTIAL          
 ACTION:READ                

 # File generated by Flopy version 3.9.3 on 08/07/2025 at 09:01:46.

 OPENED flow_model.chd
 FILE TYPE:CHD6               UNIT 1011   STATUS:OLD                 
 FORMAT:FORMATTED              ACCESS:SEQUENTIAL          
 ACTION:READ                

 # File generated by Flopy version 3.9.3 on 08/07/2025 at 09:01:46.
    A SUMMARY OF SIMULATION MEMORY INFORMATION WILL BE WRITTEN.

 READING SIMULATION OPTIONS
    MAXIMUM NUMBER OF ERRORS THAT WILL BE STORED IS 1000
    MEMORY_PRINT_OPTION SET TO "SUMMARY".
 END OF SIMULATION OPTIONS

 READING SIMULATION TIMING

 TDIS -- TEMPORAL DISCRETIZATION PACKAGE,
 VERSION 1 : 11/13/2014 - INPUT READ FROM MEMPATH: __INPUT__/SIM/TDIS                                
 PROCESSING TDIS OPTIONS
    SIMULATION TIME UNIT IS UNDEFINED
 END OF TDIS OPTIONS
 PROCESSING TDIS DIMENSIONS
    3 STRESS PERIOD(S) IN SIMULATION
 END OF TDIS DIMENSIONS
 PROCESSING TDIS PERIODDATA


 STRESS PERIOD     LENGTH       TIME STEPS     MULTIPLIER FOR DELT
 ----------------------------------------------------------------------------
        1         1.000000          1                    1.000
        2         10.00000          5                    1.200
        3         30.00000         10                    1.000
 END OF TDIS PERIODDATA
 END OF SIMULATION TIMING

 READING SIMULATION MODELS
    GWF6 model 1 will be created
 END OF SIMULATION MODELS

 READING SIMULATION EXCHANGES
 END OF SIMULATION EXCHANGES

 READING SOLUTIONGROUP

 Creating solution: SLN_1           

 OPENED simlist_demo.ims
 FILE TYPE:IMS   UNIT 1013   STATUS:OLD                 
 FORMAT:FORMATTED              ACCESS:SEQUENTIAL          
 ACTION:READ                

 END OF SOLUTIONGROUP

PROCESSING MODEL CONNECTIONS

 IMS -- ITERATIVE MODEL SOLUTION PACKAGE, VERSION 6, 4/28/2017
         INPUT READ FROM UNIT 1013
 # File generated by Flopy version 3.9.3 on 08/07/2025 at 09:01:46.

 PROCESSING IMS OPTIONS
 MODERATE OPTION:
 DEFAULT SOLVER INPUT VALUES REFLECT MODERATELY NONLINEAR MODEL
 END OF IMS OPTIONS

 PROCESSING IMS NONLINEAR
 END OF IMS NONLINEAR DATA
 **UNDER-RELAXATION WILL BE USED***
 

 PROCESSING LINEAR DATA
 END OF LINEAR DATA
 ***IMS LINEAR SOLVER WILL BE USED***

 IMSLINEAR -- UNSTRUCTURED LINEAR SOLUTION PACKAGE, VERSION 8, 04/28/2017
 An asymmetric matrix will be solved

 OUTER ITERATION CONVERGENCE CRITERION    (DVCLOSE) =    0.100000E-05
 MAXIMUM NUMBER OF OUTER ITERATIONS        (MXITER) = 100
 SOLVER PRINTOUT INDEX                     (IPRIMS) = 2
 NONLINEAR ITERATION METHOD            (NONLINMETH) = 3
 LINEAR SOLUTION METHOD                   (LINMETH) = 1
 UNDER-RELAXATION WEIGHT REDUCTION FACTOR   (THETA) =    0.900000E+00
 UNDER-RELAXATION WEIGHT INCREASE INCREMENT (KAPPA) =    0.100000E-03
 UNDER-RELAXATION PREVIOUS HISTORY FACTOR   (GAMMA) =    0.000000E+00
 UNDER-RELAXATION MOMENTUM TERM         (AMOMENTUM) =    0.000000E+00
 MAXIMUM NUMBER OF BACKTRACKS            (NUMTRACK) = 20
 BACKTRACKING TOLERANCE FACTOR               (BTOL) =    0.110000E+01
 BACKTRACKING REDUCTION FACTOR             (BREDUC) =    0.200000E+00
 BACKTRACKING RESIDUAL LIMIT              (RES_LIM) =    0.000000E+00

       SOLUTION BY THE BICONJUGATE-GRADIENT STABILIZED METHOD
 ------------------------------------------------------------------
 MAXIMUM OF 100 CALLS OF SOLUTION ROUTINE
 MAXIMUM OF 50 INTERNAL ITERATIONS PER CALL TO SOLUTION ROUTINE
 LINEAR ACCELERATION METHOD            = BCGS      
 MATRIX PRECONDITIONING TYPE           = MOD. INCOMPLETE LU  
 MATRIX SCALING APPROACH               = NO SCALING          
 MATRIX REORDERING APPROACH            = ORIGINAL ORDERING        
 NUMBER OF ORTHOGONALIZATIONS          = 0
 HEAD CHANGE CRITERION FOR CLOSURE     =    0.10000E-07
 RESIDUAL CHANGE CRITERION FOR CLOSURE =    0.10000E+00
 RESIDUAL CONVERGENCE OPTION           = 0
 RESIDUAL CONVERGENCE NORM             = INFINITY NORM   
 RELAXATION FACTOR                     =    0.97000E+00



 
    Solving:  Stress period:     1    Time step:     1
 
1
 STRESS PERIOD NO. 1, LENGTH =   1.000000    
 ------------------------------------------
 NUMBER OF TIME STEPS = 1
 MULTIPLIER FOR DELT =     1.000
 INITIAL TIME STEP SIZE =   1.000000    

 SLN_1 OUTER ITERATION SUMMARY
 ----------------------------------------------------------------------------------------------------------------------------------------------------------------
                                OUTER      INNER  BACKTRACK  BACKTRACK        INCOMING        OUTGOING                    STEP   MAXIMUM CHANGE MODEL-(CELLID) OR
 OUTER ITERATION STEP       ITERATION  ITERATION       FLAG ITERATIONS        RESIDUAL        RESIDUAL  MAXIMUM CHANGE SUCCESS             MODEL-PACKAGE-(NUMBER)
 ----------------------------------------------------------------------------------------------------------------------------------------------------------------
 Backtracking                       1                     0          0       231969.07       231969.07                       *                                   
 Model                              1         20                                                             9.6288364                             1_GWF-(1,20,2)
 Backtracking                       2                     0          0  9.18305918E-07  9.18305918E-07                       *                                   
 Model                              2          1                                                       -8.83481732E-10       *                      1_GWF-(1,1,9)
 ----------------------------------------------------------------------------------------------------------------------------------------------------------------


 2 CALLS TO NUMERICAL SOLUTION IN TIME STEP 1 STRESS PERIOD 1
 21 TOTAL ITERATIONS

 SLN_1 INNER ITERATION SUMMARY
 --------------------------------------------------------------------------------------------------------------------------------------
      TOTAL      OUTER      INNER                                                            MAXIMUM                                   
  ITERATION  ITERATION  ITERATION  MAXIMUM CHANGE      MAXIMUM CHANGE MODEL-(CELLID)        RESIDUAL    MAXIMUM RESIDUAL MODEL-(CELLID)
 --------------------------------------------------------------------------------------------------------------------------------------
          1          1          1      -9.5263317                     1_GWF-(1,5,24)       3528.8360                    1_GWF-(2,12,25)
          2          1          2      -3.0895985                    1_GWF-(2,20,20)      -629.90233                     1_GWF-(2,12,1)
          3          1          3     -0.52761050                     1_GWF-(1,3,17)      -207.50122                     1_GWF-(2,12,1)
          4          1          4      0.28441686                     1_GWF-(1,12,8)      -55.649203                     1_GWF-(2,15,1)
          5          1          5      0.13979685                     1_GWF-(1,17,8)      -19.574941                     1_GWF-(2,15,4)
          6          1          6  8.93997024E-02                     1_GWF-(1,19,9)      -8.7629428                     1_GWF-(2,15,4)
          7          1          7  4.37517876E-02                    1_GWF-(1,20,11)      -4.7994814                     1_GWF-(2,15,5)
          8          1          8  3.58428970E-02                    1_GWF-(1,20,12)      -3.1798860                    1_GWF-(2,14,11)
          9          1          9  1.00646639E-02                    1_GWF-(2,16,14)      -2.0303223                     1_GWF-(2,15,7)
         10          1         10 -2.04262350E-02                    1_GWF-(2,20,12)      -3.1005874                     1_GWF-(2,15,7)
         11          1         11  6.78814470E-02                    1_GWF-(2,19,12)      0.99415170                     1_GWF-(2,15,7)
         12          1         12 -1.25905916E-02                    1_GWF-(2,19,12)      0.16549266                    1_GWF-(2,11,25)
         13          1         13 -3.14504153E-02                    1_GWF-(2,20,12)      -1.7578220                    1_GWF-(2,15,11)
         14          1         14  2.88527177E-02                    1_GWF-(2,20,12)  9.98974176E-03                    1_GWF-(2,15,11)
         15          1         15 -1.36941208E-04                    1_GWF-(2,20,12)  1.26684582E-03                    1_GWF-(2,11,25)
         16          1         16 -1.78036848E-05                    1_GWF-(2,20,12)  1.69701422E-04                    1_GWF-(2,11,25)
         17          1         17 -2.44899566E-06                    1_GWF-(2,20,12)  2.32806774E-05                    1_GWF-(2,11,25)
         18          1         18 -4.79068743E-07                    1_GWF-(2,20,12) -7.92472564E-06                    1_GWF-(2,11,25)
         19          1         19  1.33413826E-07                    1_GWF-(2,19,13)  7.54543608E-07                    1_GWF-(2,14,10)
         20          1         20 -8.09709188E-09                     1_GWF-(1,4,11)  1.03023044E-07                     1_GWF-(2,15,3)
         21          2          1 -8.83481001E-10                      1_GWF-(1,1,9)  3.57321230E-08                    1_GWF-(2,11,25)
 --------------------------------------------------------------------------------------------------------------------------------------


 
    Solving:  Stress period:     2    Time step:     1
 
1
 STRESS PERIOD NO. 2, LENGTH =   10.00000    
 ------------------------------------------
 NUMBER OF TIME STEPS = 5
 MULTIPLIER FOR DELT =     1.200
 INITIAL TIME STEP SIZE =   1.343797    

 SLN_1 OUTER ITERATION SUMMARY
 ----------------------------------------------------------------------------------------------------------------------------------------------------------------
                                OUTER      INNER  BACKTRACK  BACKTRACK        INCOMING        OUTGOING                    STEP   MAXIMUM CHANGE MODEL-(CELLID) OR
 OUTER ITERATION STEP       ITERATION  ITERATION       FLAG ITERATIONS        RESIDUAL        RESIDUAL  MAXIMUM CHANGE SUCCESS             MODEL-PACKAGE-(NUMBER)
 ----------------------------------------------------------------------------------------------------------------------------------------------------------------
 Backtracking                       1                     0          0       214.47611       214.47611                       *                                   
 Model                              1         15                                                            0.50008584                             1_GWF-(1,6,13)
 Backtracking                       2                     0          0  3.39239926E-07  3.39239926E-07                       *                                   
 Model                              2          1                                                        1.14077636E-10       *                    1_GWF-(2,20,14)
 ----------------------------------------------------------------------------------------------------------------------------------------------------------------


 2 CALLS TO NUMERICAL SOLUTION IN TIME STEP 1 STRESS PERIOD 2
 16 TOTAL ITERATIONS

 SLN_1 INNER ITERATION SUMMARY
 --------------------------------------------------------------------------------------------------------------------------------------
      TOTAL      OUTER      INNER                                                            MAXIMUM                                   
  ITERATION  ITERATION  ITERATION  MAXIMUM CHANGE      MAXIMUM CHANGE MODEL-(CELLID)        RESIDUAL    MAXIMUM RESIDUAL MODEL-(CELLID)
 --------------------------------------------------------------------------------------------------------------------------------------
          1          1          1      0.27122530                     1_GWF-(1,7,13)       20.884186                    1_GWF-(2,15,24)
          2          1          2      0.17544592                     1_GWF-(1,2,13)      -6.9155297                    1_GWF-(2,11,25)
          3          1          3  6.54137941E-02                     1_GWF-(2,1,14)      -2.1028779                     1_GWF-(2,15,6)
          4          1          4 -2.91223965E-03                    1_GWF-(2,16,17)      -2.4761516                    1_GWF-(2,12,12)
          5          1          5  1.86328858E-02                    1_GWF-(1,19,11)     -0.19642303                    1_GWF-(2,11,25)
          6          1          6  1.01039486E-03                    1_GWF-(2,20,15) -7.12998489E-02                    1_GWF-(2,20,24)
          7          1          7  8.67835070E-05                    1_GWF-(1,16,13) -2.09690833E-02                     1_GWF-(2,16,5)
          8          1          8  1.23249806E-04                    1_GWF-(1,20,12)  2.39920258E-03                    1_GWF-(2,12,22)
          9          1          9  1.15370213E-05                    1_GWF-(1,19,10)  6.39994948E-04                    1_GWF-(2,11,25)
         10          1         10 -2.42815814E-06                    1_GWF-(2,20,15)  8.89378380E-05                    1_GWF-(2,15,11)
         11          1         11  1.31015524E-07                     1_GWF-(2,18,6)  2.98043688E-05                    1_GWF-(2,15,15)
         12          1         12 -1.16766970E-07                    1_GWF-(2,20,14)  7.25496453E-06                    1_GWF-(2,11,25)
         13          1         13 -6.72546028E-08                    1_GWF-(2,20,12) -3.09930174E-06                    1_GWF-(2,11,25)
         14          1         14  1.90904540E-08                    1_GWF-(2,20,12) -7.74535606E-08                    1_GWF-(2,15,13)
         15          1         15  1.10384368E-10                    1_GWF-(2,18,15) -4.80868781E-08                    1_GWF-(2,14,15)
         16          2          1  1.14080554E-10                    1_GWF-(2,20,14) -1.75821973E-08                    1_GWF-(2,11,25)
 --------------------------------------------------------------------------------------------------------------------------------------


 
    Solving:  Stress period:     2    Time step:     2
 

 SLN_1 OUTER ITERATION SUMMARY
 ----------------------------------------------------------------------------------------------------------------------------------------------------------------
                                OUTER      INNER  BACKTRACK  BACKTRACK        INCOMING        OUTGOING                    STEP   MAXIMUM CHANGE MODEL-(CELLID) OR
 OUTER ITERATION STEP       ITERATION  ITERATION       FLAG ITERATIONS        RESIDUAL        RESIDUAL  MAXIMUM CHANGE SUCCESS             MODEL-PACKAGE-(NUMBER)
 ----------------------------------------------------------------------------------------------------------------------------------------------------------------
 Backtracking                       1                     0          0       37.400194       37.400194                       *                                   
 Model                              1         13                                                            0.15671720                             1_GWF-(1,1,13)
 Backtracking                       2                     0          0  4.22468820E-06  4.22468820E-06                       *                                   
 Model                              2          1                                                       -9.87405713E-10       *                     1_GWF-(2,1,12)
 ----------------------------------------------------------------------------------------------------------------------------------------------------------------


 2 CALLS TO NUMERICAL SOLUTION IN TIME STEP 2 STRESS PERIOD 2
 14 TOTAL ITERATIONS

 SLN_1 INNER ITERATION SUMMARY
 --------------------------------------------------------------------------------------------------------------------------------------
      TOTAL      OUTER      INNER                                                            MAXIMUM                                   
  ITERATION  ITERATION  ITERATION  MAXIMUM CHANGE      MAXIMUM CHANGE MODEL-(CELLID)        RESIDUAL    MAXIMUM RESIDUAL MODEL-(CELLID)
 --------------------------------------------------------------------------------------------------------------------------------------
          1          1          1      0.15672357                     1_GWF-(2,3,13)       7.6510275                     1_GWF-(2,5,24)
          2          1          2  1.10296002E-02                     1_GWF-(2,18,7)      -1.7525853                     1_GWF-(2,15,1)
          3          1          3  2.96417900E-03                     1_GWF-(1,18,8)     -0.46616224                     1_GWF-(2,15,1)
          4          1          4 -2.01841327E-03                     1_GWF-(1,1,13)     -0.18443060                     1_GWF-(2,4,21)
          5          1          5 -1.06676511E-03                     1_GWF-(1,2,13) -7.61127459E-02                     1_GWF-(2,4,20)
          6          1          6 -4.60453144E-04                     1_GWF-(2,2,13)  2.01559739E-02                    1_GWF-(2,20,24)
          7          1          7 -1.09345875E-04                     1_GWF-(2,1,12) -6.17559515E-03                    1_GWF-(2,13,25)
          8          1          8 -2.23576986E-05                     1_GWF-(2,1,12) -2.04932304E-03                    1_GWF-(2,15,11)
          9          1          9 -5.17731836E-06                     1_GWF-(2,1,11) -6.77403163E-04                    1_GWF-(2,15,11)
         10          1         10  1.27971175E-06                    1_GWF-(2,20,16) -1.65523020E-04                    1_GWF-(2,11,25)
         11          1         11  3.51371894E-07                    1_GWF-(2,20,16) -3.71210926E-05                    1_GWF-(2,15,14)
         12          1         12  9.18247107E-08                    1_GWF-(2,20,16)  4.57703730E-06                     1_GWF-(2,15,1)
         13          1         13  6.81736142E-09                     1_GWF-(1,1,18) -7.15616645E-07                    1_GWF-(2,14,25)
         14          2          1 -9.87409121E-10                     1_GWF-(2,1,12) -2.06086268E-07                    1_GWF-(2,14,25)
 --------------------------------------------------------------------------------------------------------------------------------------


 
    Solving:  Stress period:     2    Time step:     3
 

 SLN_1 OUTER ITERATION SUMMARY
 ----------------------------------------------------------------------------------------------------------------------------------------------------------------
                                OUTER      INNER  BACKTRACK  BACKTRACK        INCOMING        OUTGOING                    STEP   MAXIMUM CHANGE MODEL-(CELLID) OR
 OUTER ITERATION STEP       ITERATION  ITERATION       FLAG ITERATIONS        RESIDUAL        RESIDUAL  MAXIMUM CHANGE SUCCESS             MODEL-PACKAGE-(NUMBER)
 ----------------------------------------------------------------------------------------------------------------------------------------------------------------
 Backtracking                       1                     0          0       8.7703776       8.7703776                       *                                   
 Model                              1         13                                                        4.03774494E-02                             1_GWF-(1,1,13)
 Backtracking                       2                     0          0  3.92890284E-06  3.92890284E-06                       *                                   
 Model                              2          1                                                        5.54578605E-10       *                    1_GWF-(2,13,19)
 ----------------------------------------------------------------------------------------------------------------------------------------------------------------


 2 CALLS TO NUMERICAL SOLUTION IN TIME STEP 3 STRESS PERIOD 2
 14 TOTAL ITERATIONS

 SLN_1 INNER ITERATION SUMMARY
 --------------------------------------------------------------------------------------------------------------------------------------
      TOTAL      OUTER      INNER                                                            MAXIMUM                                   
  ITERATION  ITERATION  ITERATION  MAXIMUM CHANGE      MAXIMUM CHANGE MODEL-(CELLID)        RESIDUAL    MAXIMUM RESIDUAL MODEL-(CELLID)
 --------------------------------------------------------------------------------------------------------------------------------------
          1          1          1  4.04234487E-02                     1_GWF-(1,1,13)       1.9613129                     1_GWF-(2,5,24)
          2          1          2  2.86939792E-03                     1_GWF-(2,18,8)     -0.43852989                     1_GWF-(2,15,1)
          3          1          3  8.75651038E-04                     1_GWF-(1,18,9)     -0.12112843                     1_GWF-(2,15,1)
          4          1          4 -5.42449567E-04                     1_GWF-(1,1,14) -5.18528941E-02                     1_GWF-(2,4,20)
          5          1          5 -2.89920708E-04                     1_GWF-(2,2,13)  2.11593210E-02                     1_GWF-(1,1,24)
          6          1          6 -1.03802035E-04                     1_GWF-(2,2,13)  5.04237470E-03                    1_GWF-(2,20,24)
          7          1          7 -2.26990065E-05                     1_GWF-(2,1,11) -1.69914997E-03                    1_GWF-(2,13,25)
          8          1          8 -5.01461172E-06                     1_GWF-(2,1,11) -6.14328348E-04                    1_GWF-(2,12,25)
          9          1          9  1.47221112E-06                    1_GWF-(2,20,16) -1.92975322E-04                    1_GWF-(2,15,11)
         10          1         10  4.15627718E-07                    1_GWF-(2,20,16) -5.26349467E-05                    1_GWF-(2,11,25)
         11          1         11  1.11731973E-07                    1_GWF-(2,20,16) -1.24955922E-05                    1_GWF-(2,15,11)
         12          1         12  2.12603039E-08                    1_GWF-(2,20,16) -2.45549560E-06                    1_GWF-(2,15,11)
         13          1         13  3.76857156E-09                    1_GWF-(1,14,19) -5.97341898E-07                    1_GWF-(2,15,11)
         14          2          1  5.54579468E-10                    1_GWF-(2,13,19) -1.72585753E-07                    1_GWF-(2,15,12)
 --------------------------------------------------------------------------------------------------------------------------------------


 
    Solving:  Stress period:     2    Time step:     4
 

 SLN_1 OUTER ITERATION SUMMARY
 ----------------------------------------------------------------------------------------------------------------------------------------------------------------
                                OUTER      INNER  BACKTRACK  BACKTRACK        INCOMING        OUTGOING                    STEP   MAXIMUM CHANGE MODEL-(CELLID) OR
 OUTER ITERATION STEP       ITERATION  ITERATION       FLAG ITERATIONS        RESIDUAL        RESIDUAL  MAXIMUM CHANGE SUCCESS             MODEL-PACKAGE-(NUMBER)
 ----------------------------------------------------------------------------------------------------------------------------------------------------------------
 Backtracking                       1                     0          0       1.7967761       1.7967761                       *                                   
 Model                              1         12                                                        8.76504661E-03                             1_GWF-(1,1,13)
 Backtracking                       2                     0          0  3.71508736E-06  3.71508736E-06                       *                                   
 Model                              2          1                                                        6.88267221E-10       *                    1_GWF-(1,14,19)
 ----------------------------------------------------------------------------------------------------------------------------------------------------------------


 2 CALLS TO NUMERICAL SOLUTION IN TIME STEP 4 STRESS PERIOD 2
 13 TOTAL ITERATIONS

 SLN_1 INNER ITERATION SUMMARY
 --------------------------------------------------------------------------------------------------------------------------------------
      TOTAL      OUTER      INNER                                                            MAXIMUM                                   
  ITERATION  ITERATION  ITERATION  MAXIMUM CHANGE      MAXIMUM CHANGE MODEL-(CELLID)        RESIDUAL    MAXIMUM RESIDUAL MODEL-(CELLID)
 --------------------------------------------------------------------------------------------------------------------------------------
          1          1          1  8.77489016E-03                     1_GWF-(1,1,13)      0.42454341                     1_GWF-(2,5,24)
          2          1          2  6.29903988E-04                     1_GWF-(2,18,8) -9.31111851E-02                     1_GWF-(2,15,1)
          3          1          3  2.07552792E-04                     1_GWF-(1,18,9) -2.64952759E-02                     1_GWF-(2,5,24)
          4          1          4 -1.20030744E-04                     1_GWF-(1,1,14) -1.21608249E-02                     1_GWF-(2,4,20)
          5          1          5 -6.29134579E-05                     1_GWF-(2,2,13)  4.91466667E-03                     1_GWF-(1,1,24)
          6          1          6 -2.08150306E-05                     1_GWF-(2,2,13)  1.11988246E-03                     1_GWF-(2,15,1)
          7          1          7 -4.48902415E-06                     1_GWF-(2,1,11) -3.74612137E-04                    1_GWF-(2,13,25)
          8          1          8  1.06823206E-06                    1_GWF-(2,20,16) -1.34538979E-04                    1_GWF-(2,12,25)
          9          1          9  3.29481532E-07                    1_GWF-(2,20,16) -4.27838365E-05                    1_GWF-(2,15,11)
         10          1         10  9.04908807E-08                    1_GWF-(2,20,16) -1.10934072E-05                    1_GWF-(2,15,11)
         11          1         11  2.39367262E-08                    1_GWF-(2,20,16) -2.60102431E-06                    1_GWF-(2,15,11)
         12          1         12  4.37650623E-09                    1_GWF-(2,20,16) -4.89018982E-07                    1_GWF-(2,15,11)
         13          2          1  6.88270638E-10                    1_GWF-(1,14,19) -9.26729051E-08                    1_GWF-(2,15,12)
 --------------------------------------------------------------------------------------------------------------------------------------


 
    Solving:  Stress period:     2    Time step:     5
 

 SLN_1 OUTER ITERATION SUMMARY
 ----------------------------------------------------------------------------------------------------------------------------------------------------------------
                                OUTER      INNER  BACKTRACK  BACKTRACK        INCOMING        OUTGOING                    STEP   MAXIMUM CHANGE MODEL-(CELLID) OR
 OUTER ITERATION STEP       ITERATION  ITERATION       FLAG ITERATIONS        RESIDUAL        RESIDUAL  MAXIMUM CHANGE SUCCESS             MODEL-PACKAGE-(NUMBER)
 ----------------------------------------------------------------------------------------------------------------------------------------------------------------
 Backtracking                       1                     0          0      0.31815159      0.31815159                       *                                   
 Model                              1         11                                                        1.61679144E-03                             1_GWF-(1,1,13)
 Backtracking                       2                     0          0  3.42878751E-06  3.42878751E-06                       *                                   
 Model                              2          1                                                        5.66799940E-10       *                    1_GWF-(2,14,19)
 ----------------------------------------------------------------------------------------------------------------------------------------------------------------


 2 CALLS TO NUMERICAL SOLUTION IN TIME STEP 5 STRESS PERIOD 2
 12 TOTAL ITERATIONS

 SLN_1 INNER ITERATION SUMMARY
 --------------------------------------------------------------------------------------------------------------------------------------
      TOTAL      OUTER      INNER                                                            MAXIMUM                                   
  ITERATION  ITERATION  ITERATION  MAXIMUM CHANGE      MAXIMUM CHANGE MODEL-(CELLID)        RESIDUAL    MAXIMUM RESIDUAL MODEL-(CELLID)
 --------------------------------------------------------------------------------------------------------------------------------------
          1          1          1  1.61784646E-03                     1_GWF-(1,1,13)  7.84944005E-02                     1_GWF-(2,5,24)
          2          1          2  1.17055181E-04                     1_GWF-(2,18,8) -1.69810290E-02                     1_GWF-(2,15,1)
          3          1          3  4.02595805E-05                     1_GWF-(1,18,9) -5.07377311E-03                     1_GWF-(2,5,24)
          4          1          4  2.27863795E-05                    1_GWF-(1,19,10) -2.37151655E-03                     1_GWF-(2,4,20)
          5          1          5 -1.16540486E-05                     1_GWF-(2,2,13)  9.42556103E-04                     1_GWF-(1,1,24)
          6          1          6 -3.73192929E-06                     1_GWF-(2,2,13)  2.18022993E-04                     1_GWF-(2,15,1)
          7          1          7 -8.06750947E-07                     1_GWF-(2,1,11) -7.04672814E-05                    1_GWF-(2,13,25)
          8          1          8  2.02039379E-07                    1_GWF-(2,20,16) -2.52813331E-05                    1_GWF-(2,12,25)
          9          1          9  6.28077864E-08                    1_GWF-(2,20,16) -8.07667860E-06                    1_GWF-(2,15,11)
         10          1         10  1.69602328E-08                    1_GWF-(2,20,16) -2.06344233E-06                    1_GWF-(2,15,11)
         11          1         11  4.46410486E-09                    1_GWF-(2,20,16) -4.80130161E-07                    1_GWF-(2,15,11)
         12          2          1  5.66798101E-10                    1_GWF-(2,14,19) -1.34171884E-07                    1_GWF-(2,15,12)
 --------------------------------------------------------------------------------------------------------------------------------------


 
    Solving:  Stress period:     3    Time step:     1
 
1
 STRESS PERIOD NO. 3, LENGTH =   30.00000    
 ------------------------------------------
 NUMBER OF TIME STEPS = 10
 MULTIPLIER FOR DELT =     1.000
 INITIAL TIME STEP SIZE =   3.000000    

 SLN_1 OUTER ITERATION SUMMARY
 ----------------------------------------------------------------------------------------------------------------------------------------------------------------
                                OUTER      INNER  BACKTRACK  BACKTRACK        INCOMING        OUTGOING                    STEP   MAXIMUM CHANGE MODEL-(CELLID) OR
 OUTER ITERATION STEP       ITERATION  ITERATION       FLAG ITERATIONS        RESIDUAL        RESIDUAL  MAXIMUM CHANGE SUCCESS             MODEL-PACKAGE-(NUMBER)
 ----------------------------------------------------------------------------------------------------------------------------------------------------------------
 Backtracking                       1                     0          0       321.68334       321.68334                       *                                   
 Model                              1         15                                                           -0.89290702                             1_GWF-(1,6,13)
 Backtracking                       2                     0          0  1.06374031E-06  1.06374031E-06                       *                                   
 Model                              2          1                                                       -2.65380606E-10       *                    1_GWF-(2,16,17)
 ----------------------------------------------------------------------------------------------------------------------------------------------------------------


 2 CALLS TO NUMERICAL SOLUTION IN TIME STEP 1 STRESS PERIOD 3
 16 TOTAL ITERATIONS

 SLN_1 INNER ITERATION SUMMARY
 --------------------------------------------------------------------------------------------------------------------------------------
      TOTAL      OUTER      INNER                                                            MAXIMUM                                   
  ITERATION  ITERATION  ITERATION  MAXIMUM CHANGE      MAXIMUM CHANGE MODEL-(CELLID)        RESIDUAL    MAXIMUM RESIDUAL MODEL-(CELLID)
 --------------------------------------------------------------------------------------------------------------------------------------
          1          1          1     -0.44365727                     1_GWF-(1,7,13)      -33.961690                    1_GWF-(2,15,24)
          2          1          2     -0.32844786                     1_GWF-(1,2,13)       12.221276                    1_GWF-(2,11,25)
          3          1          3     -0.13856138                     1_GWF-(2,1,14)       3.8558205                     1_GWF-(2,15,6)
          4          1          4  9.06923411E-03                    1_GWF-(2,13,14)       4.7599467                    1_GWF-(2,12,12)
          5          1          5 -4.09971891E-02                    1_GWF-(1,19,11)      0.40626583                    1_GWF-(2,11,25)
          6          1          6 -2.42805409E-03                    1_GWF-(2,20,15)      0.16529175                    1_GWF-(2,20,24)
          7          1          7 -2.01191606E-04                    1_GWF-(1,16,13)  4.13037481E-02                    1_GWF-(2,12,13)
          8          1          8 -3.27613076E-04                    1_GWF-(1,20,12) -4.94080509E-03                    1_GWF-(2,12,22)
          9          1          9 -3.04356160E-05                    1_GWF-(1,19,10) -1.45780614E-03                    1_GWF-(2,11,25)
         10          1         10  6.44565930E-06                    1_GWF-(2,20,15) -1.87475076E-04                    1_GWF-(2,15,12)
         11          1         11 -2.31157272E-07                     1_GWF-(2,16,5) -8.04092839E-05                    1_GWF-(2,14,15)
         12          1         12  3.97974735E-07                    1_GWF-(2,19,13) -2.06056353E-05                    1_GWF-(2,12,13)
         13          1         13  2.04904099E-07                    1_GWF-(2,20,12)  7.77264285E-06                    1_GWF-(2,11,25)
         14          1         14 -5.85543603E-08                    1_GWF-(2,20,12)  3.38849838E-07                     1_GWF-(2,13,1)
         15          1         15 -4.25947466E-10                    1_GWF-(2,18,15)  1.75210065E-07                    1_GWF-(2,14,15)
         16          2          1 -2.65377872E-10                    1_GWF-(2,16,17)  6.44999913E-08                    1_GWF-(2,11,25)
 --------------------------------------------------------------------------------------------------------------------------------------


 
    Solving:  Stress period:     3    Time step:     2
 

 SLN_1 OUTER ITERATION SUMMARY
 ----------------------------------------------------------------------------------------------------------------------------------------------------------------
                                OUTER      INNER  BACKTRACK  BACKTRACK        INCOMING        OUTGOING                    STEP   MAXIMUM CHANGE MODEL-(CELLID) OR
 OUTER ITERATION STEP       ITERATION  ITERATION       FLAG ITERATIONS        RESIDUAL        RESIDUAL  MAXIMUM CHANGE SUCCESS             MODEL-PACKAGE-(NUMBER)
 ----------------------------------------------------------------------------------------------------------------------------------------------------------------
 Backtracking                       1                     0          0       29.490388       29.490388                       *                                   
 Model                              1         14                                                           -0.14066856                             1_GWF-(1,1,13)
 Backtracking                       2                     0          0  9.36426142E-07  9.36426142E-07                       *                                   
 Model                              2          1                                                       -2.91954905E-10       *                    1_GWF-(2,20,17)
 ----------------------------------------------------------------------------------------------------------------------------------------------------------------


 2 CALLS TO NUMERICAL SOLUTION IN TIME STEP 2 STRESS PERIOD 3
 15 TOTAL ITERATIONS

 SLN_1 INNER ITERATION SUMMARY
 --------------------------------------------------------------------------------------------------------------------------------------
      TOTAL      OUTER      INNER                                                            MAXIMUM                                   
  ITERATION  ITERATION  ITERATION  MAXIMUM CHANGE      MAXIMUM CHANGE MODEL-(CELLID)        RESIDUAL    MAXIMUM RESIDUAL MODEL-(CELLID)
 --------------------------------------------------------------------------------------------------------------------------------------
          1          1          1     -0.14070317                     1_GWF-(2,3,13)      -7.0340430                     1_GWF-(2,5,24)
          2          1          2 -9.99966857E-03                     1_GWF-(2,18,7)       1.5892808                     1_GWF-(2,15,1)
          3          1          3 -2.77607159E-03                     1_GWF-(1,18,8)      0.44438356                     1_GWF-(2,15,1)
          4          1          4  1.94581451E-03                     1_GWF-(1,1,13)      0.17901585                     1_GWF-(2,3,19)
          5          1          5  1.06952698E-03                     1_GWF-(1,2,13)  7.74022271E-02                     1_GWF-(2,4,20)
          6          1          6  4.84509964E-04                     1_GWF-(2,2,13) -2.08947824E-02                    1_GWF-(2,20,24)
          7          1          7  1.16258688E-04                     1_GWF-(2,2,12)  6.77757546E-03                    1_GWF-(2,13,25)
          8          1          8  2.48200300E-05                     1_GWF-(2,1,11)  2.34026871E-03                    1_GWF-(2,12,25)
          9          1          9  6.08273326E-06                     1_GWF-(2,1,11)  7.27734072E-04                    1_GWF-(2,15,11)
         10          1         10  1.49240261E-06                     1_GWF-(2,1,11)  1.76704140E-04                    1_GWF-(2,11,25)
         11          1         11 -3.91041412E-07                    1_GWF-(2,20,16)  4.20510662E-05                    1_GWF-(2,15,13)
         12          1         12 -9.65050770E-08                    1_GWF-(2,20,16) -7.74605665E-06                     1_GWF-(2,15,1)
         13          1         13 -1.31369458E-08                     1_GWF-(1,1,20)  2.22086612E-06                     1_GWF-(2,2,17)
         14          1         14  4.24682069E-09                     1_GWF-(2,2,13)  1.86770171E-07                    1_GWF-(2,13,25)
         15          2          1 -2.91954677E-10                    1_GWF-(2,20,17)  2.06979010E-08                    1_GWF-(2,11,25)
 --------------------------------------------------------------------------------------------------------------------------------------


 
    Solving:  Stress period:     3    Time step:     3
 

 SLN_1 OUTER ITERATION SUMMARY
 ----------------------------------------------------------------------------------------------------------------------------------------------------------------
                                OUTER      INNER  BACKTRACK  BACKTRACK        INCOMING        OUTGOING                    STEP   MAXIMUM CHANGE MODEL-(CELLID) OR
 OUTER ITERATION STEP       ITERATION  ITERATION       FLAG ITERATIONS        RESIDUAL        RESIDUAL  MAXIMUM CHANGE SUCCESS             MODEL-PACKAGE-(NUMBER)
 ----------------------------------------------------------------------------------------------------------------------------------------------------------------
 Backtracking                       1                     0          0       4.1790305       4.1790305                       *                                   
 Model                              1         13                                                       -2.09071254E-02                             1_GWF-(1,1,13)
 Backtracking                       2                     0          0  2.26788903E-06  2.26788903E-06                       *                                   
 Model                              2          1                                                       -3.18280513E-10       *                    1_GWF-(2,13,19)
 ----------------------------------------------------------------------------------------------------------------------------------------------------------------


 2 CALLS TO NUMERICAL SOLUTION IN TIME STEP 3 STRESS PERIOD 3
 14 TOTAL ITERATIONS

 SLN_1 INNER ITERATION SUMMARY
 --------------------------------------------------------------------------------------------------------------------------------------
      TOTAL      OUTER      INNER                                                            MAXIMUM                                   
  ITERATION  ITERATION  ITERATION  MAXIMUM CHANGE      MAXIMUM CHANGE MODEL-(CELLID)        RESIDUAL    MAXIMUM RESIDUAL MODEL-(CELLID)
 --------------------------------------------------------------------------------------------------------------------------------------
          1          1          1 -2.09436795E-02                     1_GWF-(1,1,13)      -1.0304611                     1_GWF-(2,5,24)
          2          1          2 -1.50625919E-03                     1_GWF-(2,18,8)      0.22851576                     1_GWF-(2,15,1)
          3          1          3 -4.73156680E-04                     1_GWF-(1,18,9)  6.49132892E-02                     1_GWF-(2,15,1)
          4          1          4  2.97141381E-04                     1_GWF-(1,1,14)  2.91523949E-02                     1_GWF-(2,4,20)
          5          1          5  1.60884159E-04                     1_GWF-(2,2,13) -1.19763345E-02                     1_GWF-(1,1,24)
          6          1          6  5.84436842E-05                     1_GWF-(2,2,13) -2.83899730E-03                    1_GWF-(2,20,24)
          7          1          7  1.29635770E-05                     1_GWF-(2,1,11)  9.73356008E-04                    1_GWF-(2,13,25)
          8          1          8  2.93931979E-06                     1_GWF-(2,1,11)  3.52541547E-04                    1_GWF-(2,12,25)
          9          1          9 -8.68912262E-07                    1_GWF-(2,20,16)  1.09167380E-04                    1_GWF-(2,11,25)
         10          1         10 -2.44007387E-07                    1_GWF-(2,20,16)  3.01396440E-05                    1_GWF-(2,11,25)
         11          1         11 -6.56236164E-08                    1_GWF-(2,20,16)  7.00884048E-06                    1_GWF-(2,12,17)
         12          1         12 -1.24115524E-08                    1_GWF-(2,20,16)  1.38669769E-06                    1_GWF-(2,15,11)
         13          1         13 -2.17961105E-09                    1_GWF-(1,14,19)  3.37032418E-07                    1_GWF-(2,15,11)
         14          2          1 -3.18280213E-10                    1_GWF-(2,13,19)  9.79552338E-08                    1_GWF-(2,15,12)
 --------------------------------------------------------------------------------------------------------------------------------------


 
    Solving:  Stress period:     3    Time step:     4
 

 SLN_1 OUTER ITERATION SUMMARY
 ----------------------------------------------------------------------------------------------------------------------------------------------------------------
                                OUTER      INNER  BACKTRACK  BACKTRACK        INCOMING        OUTGOING                    STEP   MAXIMUM CHANGE MODEL-(CELLID) OR
 OUTER ITERATION STEP       ITERATION  ITERATION       FLAG ITERATIONS        RESIDUAL        RESIDUAL  MAXIMUM CHANGE SUCCESS             MODEL-PACKAGE-(NUMBER)
 ----------------------------------------------------------------------------------------------------------------------------------------------------------------
 Backtracking                       1                     0          0      0.59594793      0.59594793                       *                                   
 Model                              1         11                                                       -3.04011929E-03                             1_GWF-(1,1,13)
 Backtracking                       2                     0          0  6.76350839E-06  6.76350839E-06                       *                                   
 Model                              2          1                                                       -1.13192300E-09       *                    1_GWF-(2,14,19)
 ----------------------------------------------------------------------------------------------------------------------------------------------------------------


 2 CALLS TO NUMERICAL SOLUTION IN TIME STEP 4 STRESS PERIOD 3
 12 TOTAL ITERATIONS

 SLN_1 INNER ITERATION SUMMARY
 --------------------------------------------------------------------------------------------------------------------------------------
      TOTAL      OUTER      INNER                                                            MAXIMUM                                   
  ITERATION  ITERATION  ITERATION  MAXIMUM CHANGE      MAXIMUM CHANGE MODEL-(CELLID)        RESIDUAL    MAXIMUM RESIDUAL MODEL-(CELLID)
 --------------------------------------------------------------------------------------------------------------------------------------
          1          1          1 -3.04385086E-03                     1_GWF-(1,1,13)     -0.14843012                     1_GWF-(2,5,24)
          2          1          2 -2.20256065E-04                     1_GWF-(2,18,8)  3.23771772E-02                     1_GWF-(2,15,1)
          3          1          3 -7.39671973E-05                     1_GWF-(1,18,9)  9.46301506E-03                     1_GWF-(2,5,24)
          4          1          4  4.28370781E-05                     1_GWF-(1,1,14)  4.42951017E-03                     1_GWF-(2,4,20)
          5          1          5  2.25838776E-05                     1_GWF-(2,2,13) -1.78702126E-03                     1_GWF-(1,1,24)
          6          1          6  7.49590973E-06                     1_GWF-(2,2,13) -4.10414682E-04                     1_GWF-(2,15,1)
          7          1          7  1.62996353E-06                     1_GWF-(2,1,11)  1.36689957E-04                    1_GWF-(2,13,25)
          8          1          8 -3.94180726E-07                    1_GWF-(2,20,16)  4.91380809E-05                    1_GWF-(2,12,25)
          9          1          9 -1.22146640E-07                    1_GWF-(2,20,16)  1.54976511E-05                    1_GWF-(2,15,11)
         10          1         10 -3.33614701E-08                    1_GWF-(2,20,16)  4.03556547E-06                    1_GWF-(2,11,25)
         11          1         11 -8.81933523E-09                    1_GWF-(2,20,16)  9.41023051E-07                    1_GWF-(2,15,11)
         12          2          1 -1.13192452E-09                    1_GWF-(2,14,19)  2.64615473E-07                    1_GWF-(2,15,12)
 --------------------------------------------------------------------------------------------------------------------------------------


 
    Solving:  Stress period:     3    Time step:     5
 

 SLN_1 OUTER ITERATION SUMMARY
 ----------------------------------------------------------------------------------------------------------------------------------------------------------------
                                OUTER      INNER  BACKTRACK  BACKTRACK        INCOMING        OUTGOING                    STEP   MAXIMUM CHANGE MODEL-(CELLID) OR
 OUTER ITERATION STEP       ITERATION  ITERATION       FLAG ITERATIONS        RESIDUAL        RESIDUAL  MAXIMUM CHANGE SUCCESS             MODEL-PACKAGE-(NUMBER)
 ----------------------------------------------------------------------------------------------------------------------------------------------------------------
 Backtracking                       1                     0          0  8.50994609E-02  8.50994609E-02                       *                                   
 Model                              1         10                                                       -4.38034247E-04                             1_GWF-(1,1,13)
 Backtracking                       2                     0          0  4.45492737E-06  4.45492737E-06                       *                                   
 Model                              2          1                                                       -9.72519842E-10       *                    1_GWF-(2,20,16)
 ----------------------------------------------------------------------------------------------------------------------------------------------------------------


 2 CALLS TO NUMERICAL SOLUTION IN TIME STEP 5 STRESS PERIOD 3
 11 TOTAL ITERATIONS

 SLN_1 INNER ITERATION SUMMARY
 --------------------------------------------------------------------------------------------------------------------------------------
      TOTAL      OUTER      INNER                                                            MAXIMUM                                   
  ITERATION  ITERATION  ITERATION  MAXIMUM CHANGE      MAXIMUM CHANGE MODEL-(CELLID)        RESIDUAL    MAXIMUM RESIDUAL MODEL-(CELLID)
 --------------------------------------------------------------------------------------------------------------------------------------
          1          1          1 -4.38285662E-04                     1_GWF-(1,1,13) -2.13041659E-02                     1_GWF-(2,5,24)
          2          1          2 -3.18001873E-05                     1_GWF-(2,20,9)  4.59547757E-03                     1_GWF-(2,15,1)
          3          1          3 -1.10299932E-05                     1_GWF-(1,18,9)  1.38835218E-03                     1_GWF-(2,5,24)
          4          1          4 -6.27714062E-06                    1_GWF-(1,19,10)  6.52820922E-04                     1_GWF-(2,4,20)
          5          1          5  3.17521594E-06                     1_GWF-(2,2,13) -2.58549804E-04                     1_GWF-(1,1,24)
          6          1          6  1.01390842E-06                     1_GWF-(2,2,13) -5.99109194E-05                     1_GWF-(2,15,1)
          7          1          7  2.19830025E-07                     1_GWF-(2,1,11) -1.93263456E-05                     1_GWF-(2,5,24)
          8          1          8 -5.54746485E-08                    1_GWF-(2,20,16)  6.91252301E-06                    1_GWF-(2,12,25)
          9          1          9 -1.72720596E-08                    1_GWF-(2,20,16)  2.21014060E-06                    1_GWF-(2,15,11)
         10          1         10 -4.64497906E-09                    1_GWF-(2,20,16)  5.62865601E-07                    1_GWF-(2,15,11)
         11          2          1 -9.72519563E-10                    1_GWF-(2,20,16)  1.42580542E-07                    1_GWF-(2,11,25)
 --------------------------------------------------------------------------------------------------------------------------------------


 
    Solving:  Stress period:     3    Time step:     6
 

 SLN_1 OUTER ITERATION SUMMARY
 ----------------------------------------------------------------------------------------------------------------------------------------------------------------
                                OUTER      INNER  BACKTRACK  BACKTRACK        INCOMING        OUTGOING                    STEP   MAXIMUM CHANGE MODEL-(CELLID) OR
 OUTER ITERATION STEP       ITERATION  ITERATION       FLAG ITERATIONS        RESIDUAL        RESIDUAL  MAXIMUM CHANGE SUCCESS             MODEL-PACKAGE-(NUMBER)
 ----------------------------------------------------------------------------------------------------------------------------------------------------------------
 Backtracking                       1                     0          0  1.21560969E-02  1.21560969E-02                       *                                   
 Model                              1          8                                                       -6.28462509E-05                             1_GWF-(1,1,13)
 Backtracking                       2                     0          0  8.11051790E-06  8.11051790E-06                       *                                   
 Model                              2          1                                                       -1.93695371E-09       *                    1_GWF-(2,20,16)
 ----------------------------------------------------------------------------------------------------------------------------------------------------------------


 2 CALLS TO NUMERICAL SOLUTION IN TIME STEP 6 STRESS PERIOD 3
 9 TOTAL ITERATIONS

 SLN_1 INNER ITERATION SUMMARY
 --------------------------------------------------------------------------------------------------------------------------------------
      TOTAL      OUTER      INNER                                                            MAXIMUM                                   
  ITERATION  ITERATION  ITERATION  MAXIMUM CHANGE      MAXIMUM CHANGE MODEL-(CELLID)        RESIDUAL    MAXIMUM RESIDUAL MODEL-(CELLID)
 --------------------------------------------------------------------------------------------------------------------------------------
          1          1          1 -6.28556832E-05                     1_GWF-(1,1,13) -3.05120016E-03                     1_GWF-(2,5,24)
          2          1          2 -4.57620216E-06                     1_GWF-(2,20,9)  6.54037435E-04                     1_GWF-(2,15,1)
          3          1          3 -1.60897894E-06                     1_GWF-(1,18,9)  2.00735533E-04                     1_GWF-(2,5,24)
          4          1          4 -9.19277813E-07                    1_GWF-(1,19,10)  9.47071148E-05                     1_GWF-(2,4,20)
          5          1          5  4.49114765E-07                     1_GWF-(2,2,13)  3.72520787E-05                     1_GWF-(2,1,24)
          6          1          6  1.41134530E-07                     1_GWF-(2,2,13) -8.60479343E-06                     1_GWF-(2,15,1)
          7          1          7 -3.07024956E-08                    1_GWF-(2,20,15) -2.77640957E-06                     1_GWF-(2,5,24)
          8          1          8 -7.86854787E-09                    1_GWF-(2,20,16)  9.77638462E-07                    1_GWF-(2,12,25)
          9          2          1 -1.93695642E-09                    1_GWF-(2,20,16)  3.44951081E-07                    1_GWF-(2,11,25)
 --------------------------------------------------------------------------------------------------------------------------------------


 
    Solving:  Stress period:     3    Time step:     7
 

 SLN_1 OUTER ITERATION SUMMARY
 ----------------------------------------------------------------------------------------------------------------------------------------------------------------
                                OUTER      INNER  BACKTRACK  BACKTRACK        INCOMING        OUTGOING                    STEP   MAXIMUM CHANGE MODEL-(CELLID) OR
 OUTER ITERATION STEP       ITERATION  ITERATION       FLAG ITERATIONS        RESIDUAL        RESIDUAL  MAXIMUM CHANGE SUCCESS             MODEL-PACKAGE-(NUMBER)
 ----------------------------------------------------------------------------------------------------------------------------------------------------------------
 Backtracking                       1                     0          0  1.73660645E-03  1.73660645E-03                       *                                   
 Model                              1          7                                                       -8.99770772E-06                             1_GWF-(2,1,13)
 Backtracking                       2                     0          0  3.28976069E-06  3.28976069E-06                       *                                   
 Model                              2          1                                                        8.32088176E-10       *                     1_GWF-(2,1,11)
 ----------------------------------------------------------------------------------------------------------------------------------------------------------------


 2 CALLS TO NUMERICAL SOLUTION IN TIME STEP 7 STRESS PERIOD 3
 8 TOTAL ITERATIONS

 SLN_1 INNER ITERATION SUMMARY
 --------------------------------------------------------------------------------------------------------------------------------------
      TOTAL      OUTER      INNER                                                            MAXIMUM                                   
  ITERATION  ITERATION  ITERATION  MAXIMUM CHANGE      MAXIMUM CHANGE MODEL-(CELLID)        RESIDUAL    MAXIMUM RESIDUAL MODEL-(CELLID)
 --------------------------------------------------------------------------------------------------------------------------------------
          1          1          1 -9.00729228E-06                     1_GWF-(1,1,13) -4.36980929E-04                     1_GWF-(2,5,24)
          2          1          2 -6.53940808E-07                     1_GWF-(2,20,9)  9.30357987E-05                     1_GWF-(2,15,1)
          3          1          3 -2.30407128E-07                    1_GWF-(1,18,10)  2.84601115E-05                     1_GWF-(2,5,24)
          4          1          4 -1.32596905E-07                    1_GWF-(1,19,10)  1.35489640E-05                     1_GWF-(2,4,20)
          5          1          5  6.32306712E-08                     1_GWF-(2,2,13) -5.23565232E-06                     1_GWF-(1,1,24)
          6          1          6  2.06312872E-08                     1_GWF-(2,2,13)  1.15303709E-06                     1_GWF-(2,3,19)
          7          1          7  4.57403380E-09                     1_GWF-(2,1,11)  3.83781406E-07                    1_GWF-(2,15,11)
          8          2          1  8.32087558E-10                     1_GWF-(2,1,11)  1.53737951E-07                    1_GWF-(2,12,25)
 --------------------------------------------------------------------------------------------------------------------------------------


 
    Solving:  Stress period:     3    Time step:     8
 

 SLN_1 OUTER ITERATION SUMMARY
 ----------------------------------------------------------------------------------------------------------------------------------------------------------------
                                OUTER      INNER  BACKTRACK  BACKTRACK        INCOMING        OUTGOING                    STEP   MAXIMUM CHANGE MODEL-(CELLID) OR
 OUTER ITERATION STEP       ITERATION  ITERATION       FLAG ITERATIONS        RESIDUAL        RESIDUAL  MAXIMUM CHANGE SUCCESS             MODEL-PACKAGE-(NUMBER)
 ----------------------------------------------------------------------------------------------------------------------------------------------------------------
 Backtracking                       1                     0          0  2.48099806E-04  2.48099806E-04                       *                                   
 Model                              1          5                                                       -1.29010388E-06                             1_GWF-(2,1,13)
 Backtracking                       2                     0          0  5.41450922E-06  5.41450922E-06                       *                                   
 Model                              2          1                                                        2.46017606E-09       *                     1_GWF-(2,2,13)
 ----------------------------------------------------------------------------------------------------------------------------------------------------------------


 2 CALLS TO NUMERICAL SOLUTION IN TIME STEP 8 STRESS PERIOD 3
 6 TOTAL ITERATIONS

 SLN_1 INNER ITERATION SUMMARY
 --------------------------------------------------------------------------------------------------------------------------------------
      TOTAL      OUTER      INNER                                                            MAXIMUM                                   
  ITERATION  ITERATION  ITERATION  MAXIMUM CHANGE      MAXIMUM CHANGE MODEL-(CELLID)        RESIDUAL    MAXIMUM RESIDUAL MODEL-(CELLID)
 --------------------------------------------------------------------------------------------------------------------------------------
          1          1          1 -1.29104115E-06                     1_GWF-(1,1,13) -6.26173095E-05                     1_GWF-(2,5,24)
          2          1          2 -9.33385795E-08                     1_GWF-(2,20,9)  1.31309946E-05                     1_GWF-(2,15,1)
          3          1          3 -3.23941743E-08                    1_GWF-(1,18,10)  3.94084579E-06                     1_GWF-(2,5,24)
          4          1          4 -1.88565585E-08                    1_GWF-(1,19,10)  1.87112297E-06                     1_GWF-(2,4,20)
          5          1          5  8.78726974E-09                     1_GWF-(2,2,13) -7.19576947E-07                     1_GWF-(1,1,24)
          6          2          1  2.46017359E-09                     1_GWF-(2,2,13)  1.92934359E-07                    1_GWF-(2,11,25)
 --------------------------------------------------------------------------------------------------------------------------------------


 
    Solving:  Stress period:     3    Time step:     9
 

 SLN_1 OUTER ITERATION SUMMARY
 ----------------------------------------------------------------------------------------------------------------------------------------------------------------
                                OUTER      INNER  BACKTRACK  BACKTRACK        INCOMING        OUTGOING                    STEP   MAXIMUM CHANGE MODEL-(CELLID) OR
 OUTER ITERATION STEP       ITERATION  ITERATION       FLAG ITERATIONS        RESIDUAL        RESIDUAL  MAXIMUM CHANGE SUCCESS             MODEL-PACKAGE-(NUMBER)
 ----------------------------------------------------------------------------------------------------------------------------------------------------------------
 Backtracking                       1                     0          0  3.55153093E-05  3.55153093E-05                       *                                   
 Model                              1          4                                                       -1.84239539E-07       *                     1_GWF-(2,1,13)
 ----------------------------------------------------------------------------------------------------------------------------------------------------------------


 1 CALLS TO NUMERICAL SOLUTION IN TIME STEP 9 STRESS PERIOD 3
 4 TOTAL ITERATIONS

 SLN_1 INNER ITERATION SUMMARY
 --------------------------------------------------------------------------------------------------------------------------------------
      TOTAL      OUTER      INNER                                                            MAXIMUM                                   
  ITERATION  ITERATION  ITERATION  MAXIMUM CHANGE      MAXIMUM CHANGE MODEL-(CELLID)        RESIDUAL    MAXIMUM RESIDUAL MODEL-(CELLID)
 --------------------------------------------------------------------------------------------------------------------------------------
          1          1          1 -1.88564999E-07                     1_GWF-(1,1,13) -9.23255503E-06                     1_GWF-(2,5,24)
          2          1          2 -3.26242261E-08                     1_GWF-(2,20,8)  1.27425840E-05                     1_GWF-(2,5,24)
          3          1          3  1.72378733E-08                     1_GWF-(2,20,7)  6.61803421E-07                     1_GWF-(2,5,24)
          4          1          4  3.32830089E-09                     1_GWF-(1,1,15) -2.35521976E-07                    1_GWF-(2,15,24)
 --------------------------------------------------------------------------------------------------------------------------------------


 
    Solving:  Stress period:     3    Time step:    10
 

 SLN_1 OUTER ITERATION SUMMARY
 ----------------------------------------------------------------------------------------------------------------------------------------------------------------
                                OUTER      INNER  BACKTRACK  BACKTRACK        INCOMING        OUTGOING                    STEP   MAXIMUM CHANGE MODEL-(CELLID) OR
 OUTER ITERATION STEP       ITERATION  ITERATION       FLAG ITERATIONS        RESIDUAL        RESIDUAL  MAXIMUM CHANGE SUCCESS             MODEL-PACKAGE-(NUMBER)
 ----------------------------------------------------------------------------------------------------------------------------------------------------------------
 Backtracking                       1                     0          0  5.35317926E-06  5.35317926E-06                       *                                   
 Model                              1          2                                                       -3.00939220E-08       *                     1_GWF-(1,1,14)
 ----------------------------------------------------------------------------------------------------------------------------------------------------------------


 1 CALLS TO NUMERICAL SOLUTION IN TIME STEP 10 STRESS PERIOD 3
 2 TOTAL ITERATIONS

 SLN_1 INNER ITERATION SUMMARY
 --------------------------------------------------------------------------------------------------------------------------------------
      TOTAL      OUTER      INNER                                                            MAXIMUM                                   
  ITERATION  ITERATION  ITERATION  MAXIMUM CHANGE      MAXIMUM CHANGE MODEL-(CELLID)        RESIDUAL    MAXIMUM RESIDUAL MODEL-(CELLID)
 --------------------------------------------------------------------------------------------------------------------------------------
          1          1          1 -2.98772376E-08                     1_GWF-(1,6,14) -1.54325237E-06                     1_GWF-(2,5,24)
          2          1          2 -3.30296093E-09                     1_GWF-(1,2,18) -6.51022868E-07                    1_GWF-(2,15,20)
 --------------------------------------------------------------------------------------------------------------------------------------



 SUMMARY INFORMATION ON VARIABLES STORED IN THE MEMORY MANAGER, IN KILOBYTES
 ----------------------------------------------------------------------------------------------------
 COMPONENT               CHARACTER        LOGICAL         INTEGER          REAL            TOTAL     
 ----------------------------------------------------------------------------------------------------
 SLN_1                 0.0000000       0.0000000       67.980000       230.16000       298.14000     
 FLOW_MODEL            4.9240000       3.20000000E-02  138.08000       321.44800       464.48400     
 TDIS                  0.0000000       1.20000000E-02  3.20000000E-02  0.12000000      0.16400000    
 __INPUT__/FLOW_MODEL  9.5110000       0.0000000       10.624000       48.680000       68.815000     
 __INPUT__/SIM         2.7000000       0.0000000       4.80000000E-02  4.80000000E-02  2.7960000     
 TMPSLN_1              0.0000000       0.0000000       60.016000       80.016000       140.03200     
 SIM                   0.0000000       4.00000000E-03  1.20000000E-02  0.0000000       1.60000000E-02
 ----------------------------------------------------------------------------------------------------



 MEMORY MANAGER TOTAL STORAGE BY DATA TYPE, IN KILOBYTES
 -------------------------------
                    ALLOCATED   
 DATA TYPE           MEMORY     
 -------------------------------
 Character        8.5720000     
 Logical          4.80000000E-02
 Integer          277.01200     
 Real             680.03200     
 -------------------------------
 Total            965.66400     
 Virtual          0.0000000     
 -------------------------------


 
 Run end date and time (yyyy/mm/dd hh:mm:ss): 2025/08/07  9:01:46
 Elapsed run time:  0.201 Seconds
 Normal termination of simulation.
